# Name: arachidonicAcid

@<TRIPOS>MOLECULE
arachidonicAcid
54 53 1 0  0
SMALL
NO_CHARGE

@<TRIPOS>ATOM
 1   C1     1.652     0.496    -7.475    C     1
 2   C2     0.399     0.4      -6.643    C     1
 3   C3     0.48     -0.83     -5.738    C     1
 4   C4    -0.791    -0.928    -4.894    C     1
 5   C5    -0.711    -2.14     -4.003    C     1
 6   C6    -0.907    -2.019    -2.713    C     1
 7   C7    -1.375    -0.706    -2.142    C     1
 8   C8    -2.594    -0.935    -1.287    C     1
 9   C9    -2.621    -0.496    -0.053    C     1
10   C10   -1.477     0.329     0.477    C     1
11   C11   -2.012     1.613     1.057    C     1
12   C12   -1.683     1.969     2.274    C     1
13   C13   -0.644     1.185     3.034    C     1
14   C14    0.417     2.123     3.546    C     1
15   C15    0.745     2.11      4.814    C     1
16   C16    0.186     1.049     5.727    C     1
17   C17    1.332     0.359     6.469    C     1
18   C18    0.765    -0.717     7.395    C     1
19   C19    1.911    -1.408     8.137    C     1
20   C20    1.343    -2.485     9.063    C     1
21   O1     2.521    -0.334    -7.356    O     1
22   O2     1.803     1.504    -8.348    O     1
23   H1    -0.466     0.311    -7.3      H     1
24   H2     0.3       1.295    -6.03     H     1
25   H3     1.346    -0.742    -5.082    H     1
26   H4     0.579    -1.726    -6.351    H     1
27   H5    -1.657    -1.016    -5.551    H     1
28   H6    -0.89     -0.032    -4.281    H     1
29   H7    -0.492    -3.109    -4.427    H     1
30   H8    -0.734    -2.861    -2.059    H     1
31   H9    -1.626    -0.024    -2.956    H     1
32   H10   -0.582    -0.27     -1.535    H     1
33   H11   -3.446    -1.463    -1.69     H     1
34   H12   -3.463    -0.725     0.583    H     1
35   H13   -0.787     0.557    -0.334    H     1
36   H14   -0.955    -0.229     1.252    H     1
37   H15   -2.665     2.241     0.469    H     1
38   H16   -2.157     2.824     2.734    H     1
39   H17   -0.189     0.448     2.371    H     1
40   H18   -1.116     0.676     3.874    H     1
41   H19    0.907     2.806     2.868    H     1
42   H20    1.417     2.86      5.206    H     1
43   H21   -0.359     0.314     5.137    H     1
44   H22   -0.488     1.51      6.449    H     1
45   H23    1.879     1.094     7.059    H     1
46   H24    2.007    -0.101     5.747    H     1
47   H25    0.218    -1.453     6.805    H     1
48   H26    0.09     -0.257     8.117    H     1
49   H27    2.457    -0.672     8.727    H     1
50   H28    2.585    -1.868     7.415    H     1
51   H29    2.16     -2.977     9.592    H     1
52   H30    0.668    -2.025     9.785    H     1
53   H31    0.797    -3.221     8.473    H     1
54   H32    2.607     1.566    -8.881    H     1
@<TRIPOS>BOND
 1    1    2    1
 2    1   21    2
 3    1   22    1
 4    2    3    1
 5    2   23    1
 6    2   24    1
 7    3    4    1
 8    3   25    1
 9    3   26    1
10    4    5    1
11    4   27    1
12    4   28    1
13    5    6    2
14    5   29    1
15    6    7    1
16    6   30    1
17    7    8    1
18    7   31    1
19    7   32    1
20    8    9    2
21    8   33    1
22    9   10    1
23    9   34    1
24   10   11    1
25   10   35    1
26   10   36    1
27   11   12    2
28   11   37    1
29   12   13    1
30   12   38    1
31   13   14    1
32   13   39    1
33   13   40    1
34   14   15    2
35   14   41    1
36   15   16    1
37   15   42    1
38   16   17    1
39   16   43    1
40   16   44    1
41   17   18    1
42   17   45    1
43   17   46    1
44   18   19    1
45   18   47    1
46   18   48    1
47   19   20    1
48   19   49    1
49   19   50    1
50   20   51    1
51   20   52    1
52   20   53    1
53   22   54    1
@<TRIPOS>SUBSTRUCTURE
1   ARACHIDONICACID1   1
