# Name: isoprene

@<TRIPOS>MOLECULE
isoprene
13 12 1 0 0
SMALL
NO_CHARGE

@<TRIPOS>ATOM
 1   C1    0.0        0.0        0.0        C.2   1
 2   C2    0.87007    0.73402   -0.70697    C.2   1
 3   C3    2.34893    0.75489   -0.31525    C.2   1
 4   C4    0.38147    1.55658   -1.91372    C.3   1
 5   C5    3.21899    1.48891   -1.02222    C.2   1
 6   H1   -1.03423   -0.01460   -0.27394    H     1
 7   H2    4.25323    1.50350   -0.74828    H     1
 8   H3    0.33948   -0.57152    0.83846    H     1
 9   H4    0.39981    0.93517   -2.80905    H     1
10   H5   -0.63672    1.90035   -1.73147    H     1
11   H6    1.03500    2.41725   -2.05599    H     1
12   H7    2.68841    0.18337    0.52321    H     1
13   H8    2.87729    2.06416   -1.86616    H     1
@<TRIPOS>BOND
 1   1    2     2
 2   1    6     1
 3   1    8     1
 4   2    3     1
 5   2    4     1
 6   3    5     2
 7   3   12     1
 8   4    9     1
 9   4   10     1
10   4   11     1
11   5    7     1
12   5   13     1
@<TRIPOS>SUBSTRUCTURE
 1   ISOPRENE1  1