   
       @<TRIPOS>MOLECULE
       acetate
       7 6 1  0       0
       SMALL
       NO_CHARGES

       	@<TRIPOS>ATOM

	1	C1	1.4894 1.9936 4.3439	C.ar	1   	ACETATE 0.000
	2	C2	2.2969 3.0589 3.6546	C.ar	1   	ACETATE 0.000
	3	H1	2.9393 2.6555 3.1421	H	1   	ACETATE 0.000
	4	H2	1.8012 3.4839 3.0580	H	1   	ACETATE 0.000
	5	H3	2.6806 3.6155 4.1764	H	1   	ACETATE 0.000
	6	O1	0.5658 1.4423 3.7072	O	1   	ACETATE 0.000
	7	O2	1.7913 1.6978 5.5229	O	1   	ACETATE 0.000
	
	@<TRIPOS>BOND
       	1       1	2       1
       	2       2	3       1
	3	2	4	1
	4	2	5	1
	5	1	6	1
	6	1	7	1
	
       @<TRIPOS>SUBSTRUCTURE
       1       ACETATE 1       PERM    0       ****    ****    0       ROOT