# Name: amino group

@<TRIPOS>MOLECULE
amino group
3 2 1 0 0
SMALL
NO_CHARGE
##nbv 1

@<TRIPOS>ATOM
 1   N1    0.0        0.0        0.0        O     1
 2   H1    0.97624    0.01378    0.25858    H     1
 3   H2   -0.55750    0.34183    0.76970    H     1
##   bv   -0.27402   -0.93636   -0.21941  -100    1
@<TRIPOS>BOND
 1   1    2     1
 2   1    3     1
@<TRIPOS>SUBSTRUCTURE
 1   AMINO GROUP1  1