# Name: benzothiazolyl group

@<TRIPOS>MOLECULE
benzothiazolyl group
13 14 1 0 0
SMALL
NO_CHARGE
##nbv 1

@<TRIPOS>ATOM
 1   C1   -1.291096058     0.723132947     0.162964804     C     1
 2   C2   -1.794986058    -0.583799053     0.085864804     C     1
 3   C3   -0.942706058    -1.661556053    -0.016945196     C     1
 4   C4    0.444783942    -1.492822353    -0.048435196     C     1
 5   C5    0.942843942    -0.188957053     0.025234804     C     1
 6   C6    0.100753942     0.897692947     0.122424804     C     1
 7   N1    0.720693942     1.995442947     0.070944804     N     1
 8   C7    1.947043942     1.690692947    -0.092495196     C     1
 9   S1    2.265683942     0.289022947    -0.095235196     S     1
10   H1   -1.957426058     1.574902947     0.218544804     H     1
11   H2   -2.757641241    -0.853930017     0.067857552     H     1
12   H3   -1.496156058    -2.490927053    -0.093335196     H     1
13   H4    1.107713942    -2.338019053    -0.159105196     H     1
##   bv    0.706633485     0.692731285    -0.144195993   -800    1
@<TRIPOS>BOND
 1   1    2     2
 2   1    6     1
 3   1   10     1
 4   2    3     1
 5   2   11     1
 6   3    4     2
 7   3   12     1
 8   4    5     1
 9   4   13     1
10   5    6     2
11   5    9     1 
12   6    7     1
13   7    8     2 
14   8    9     1
@<TRIPOS>SUBSTRUCTURE
 1   BENZOTHIAZOLYL GROUP1  1