# Name: ester group

@<TRIPOS>MOLECULE
ester group
3 2 1 0 0
SMALL
NO_CHARGE
##nbv 2

@<TRIPOS>ATOM
 1   C1    0.0        0.0        0.0        C     1
 2   O1    1.18889    0.01678    0.31491    O     1
 3   O2   -0.75443    1.21352   -0.00707    O     1
##   bv   -0.43861   -0.86289   -0.25107  -100    1
##   bv    0.42349    0.66426   -0.66356  -300    1
@<TRIPOS>BOND
 1   1    2     2
 2   1    3     1
@<TRIPOS>SUBSTRUCTURE
 1   ESTER GROUP1  1