# Name: methyl group

@<TRIPOS>MOLECULE
methyl group
4 3 1 0 0
SMALL
NO_CHARGE
##nbv 1

@<TRIPOS>ATOM
 1   C1    0.0        0.0        0.0        C     1
 2   H1   -0.07586    1.01231    0.34090    H     1
 3   H2    1.03202   -0.26748   -0.09859    H     1
 4   H3   -0.46967   -0.66138    0.70627    H     1
##   bv   -0.45427   -0.08864   -0.88644  -100    1
@<TRIPOS>BOND
 1   1    2     1
 2   1    3     1
 3   1    4     1 
@<TRIPOS>SUBSTRUCTURE
 1   METHYL GROUP1  1