   
       @<TRIPOS>MOLECULE
       ammonia
       4 3 1  0       0
       SMALL
       NO_CHARGES

       	@<TRIPOS>ATOM
    	1	N1	0.0000	-1.1720	 -1.5848	N	1   	AMMONIA 0.000
       	2       H1      0.0000	-1.8791	 -1.7932	H 	1      	AMMONIA 0.000
   	3       H2      0.6830	-0.8060	 -1.8937	H	1      	AMMONIA 0.000
      	4       H3     -0.6830  -0.8060  -1.8937	H	1	AMMONIA 0.000      

       @<TRIPOS>BOND
       	1       1       2       1
       	2       1       3       1
	3	1	4	1
       
       @<TRIPOS>SUBSTRUCTURE
       1       AMMONIA 1       PERM    0       ****    ****    0       ROOT