   
       @<TRIPOS>MOLECULE
       carbon monoxide
       2 1 1  0       0
       SMALL
       NO_CHARGES

       	@<TRIPOS>ATOM
	1	C1	0.2937 0.3492 0.6350	C.ar	1   	CARBON MONOXIDE 0.000
	2	O1	1.0281 1.2222 0.6350	O	1	CARBON MONOXIDE 0.000
	
       @<TRIPOS>BOND
       	1       1       2       1
       	
       @<TRIPOS>SUBSTRUCTURE
       1       CARBON MONOXIDE 1       PERM    0       ****    ****    0       ROOT