   
       @<TRIPOS>MOLECULE
       nitric acid
       5 4 1  0       0
       SMALL
       NO_CHARGES

       	@<TRIPOS>ATOM
	1	N1	0.6658 -5.7481 4.2933	N	1	NITRIC ACID 0.000
	2	O1	1.4883 -4.7377 4.6027	O	1	NITRIC ACID 0.000
	3	O2	-0.0653 -5.5924 3.3689	O	1	NITRIC ACID 0.000
	4	O3	0.7305 -6.7056 5.0092	O	1	NITRIC ACID 0.000
	5	H1      1.7329 -4.3281 3.7091	H	1	NITRIC ACID 0.000
      	

       @<TRIPOS>BOND
       	1       1       2       1
       	2       1       3       1
	3	1	4	1
	4	2	5	1
	

       @<TRIPOS>SUBSTRUCTURE
       1       NITRIC ACID 1       PERM    0       ****    ****    0       ROOT