   
       @<TRIPOS>MOLECULE
       phosphoric acid
       8 7 1  0       0
       SMALL
       NO_CHARGES

       	@<TRIPOS>ATOM

	1	H1	-2.7754 4.1125 2.9326	H	1   	PHOSPHORIC ACID 0.000
	2	H2	-0.8365 1.7177 0.2909	H	1   	PHOSPHORIC ACID 0.000
	3	H3	-4.3484 3.0450 0.4961	H	1   	PHOSPHORIC ACID 0.000
	4	O1	-2.5274 3.2523 2.4750	O	1   	PHOSPHORIC ACID 0.000
	5	O2	-1.6707 1.8144 0.7611	O	1   	PHOSPHORIC ACID 0.000
	6	O3	-3.4943 3.4140 0.1658	O	1   	PHOSPHORIC ACID 0.000
	7	O4	-1.2328 4.2851 0.5235	O	1   	PHOSPHORIC ACID 0.000
	8	P1	-2.2093 3.2509 0.9727	P	1   	PHOSPHORIC ACID 0.000

	@<TRIPOS>BOND
       	1       4	8       1
       	2       5	8       1
	3	6	8	1
	4	7	8	1
	5	1	4	1
	6	2	5	1
	7	3	6	1	


       @<TRIPOS>SUBSTRUCTURE
       1       PHOSPHORIC ACID 1       PERM    0       ****    ****    0       ROOT
