   
       @<TRIPOS>MOLECULE
       sulfur dioxide
       3 2 1  0       0
       SMALL
       NO_CHARGES

       @<TRIPOS>ATOM
       1       S1      7.5502 -1.6618 11.4495	S	1      SULFUR DIOXIDE 0.000
       2       O1      7.1485 -2.3951 12.6059   O 	1      SULFUR DIOXIDE 0.000
       3       O2      6.8169 -2.0635 10.2931   O	1      SULFUR DIOXIDE 0.000
       
       @<TRIPOS>BOND
       1       1       2       1
       2       1       3       1
       
       @<TRIPOS>SUBSTRUCTURE
       1       SULFUR DIOXIDE 1       PERM    0       ****    ****    0       ROOT