# Name: flavin adenine dinucleotide

@<TRIPOS>MOLECULE
flavin adenine dinucleotide
86 91 1 0  0
SMALL
NO_CHARGE

@<TRIPOS>ATOM
 1   P1    -1.648    -0.629    -3.229    P     1
 2   O1    -3.035    -1.088    -2.992    O     1
 3   O2    -0.678    -1.906    -3.378    O     1
 4   O3    -1.595     0.245    -4.58     O     1
 5   C1    -2.036    -0.605    -5.64     C     1
 6   C2    -2.009     0.169    -6.959    C     1
 7   O4    -0.665     0.583    -7.256    O     1
 8   C3    -2.476    -0.741    -8.111    C     1
 9   O5    -3.639    -0.203    -8.744    O     1
10   C4    -1.277    -0.748    -9.095    C     1
11   O6    -1.728    -0.672   -10.449    O     1
12   C5    -0.518     0.541    -8.692    C     1
13   N1     0.895     0.449    -9.063    N     1
14   C6     1.889    -0.118    -8.322    C     1
15   N2     3.023    -0.024    -8.953    N     1
16   C7     2.83      0.606   -10.136    C     1
17   C8     3.663     0.979   -11.205    C     1
18   N3     5.018     0.698   -11.178    N     1
19   N4     3.119     1.607   -12.242    N     1
20   C9     1.827     1.878   -12.277    C     1
21   N5     1.01      1.549   -11.299    N     1
22   C10    1.462     0.914   -10.223    C     1
23   N6    -1.933     0.36      8.321    N     1
24   C11   -2.802     1.033     9.07     C     1
25   O7    -3.97      1.043     8.721    O     1
26   N7    -2.474     1.701    10.185    N     1
27   C12   -1.197     1.734    10.634    C     1
28   O8    -0.897     2.34     11.644    O     1
29   C13   -0.184     1.003     9.842    C     1
30   N8     1.078     0.968    10.185    N     1
31   C14    1.969     0.295     9.446    C     1
32   C15    3.324     0.27      9.833    C     1
33   C16    4.232    -0.412     9.082    C     1
34   C17    5.679    -0.434     9.502    C     1
35   C18    3.841    -1.085     7.93     C     1
36   C19    4.866    -1.832     7.116    C     1
37   C20    2.523    -1.082     7.529    C     1
38   C21    1.572    -0.393     8.278    C     1
39   N9     0.253    -0.382     7.877    N     1
40   C22   -0.649     0.301     8.634    C     1
41   C23   -0.168    -1.093     6.668    C     1
42   C24   -0.07     -0.153     5.464    C     1
43   O9    -0.919     0.977     5.673    O     1
44   C25   -0.511    -0.895     4.201    C     1
45   O10    0.337    -2.026     3.992    O     1
46   C26   -0.413     0.044     2.997    C     1
47   O11   -1.262     1.174     3.206    O     1
48   C27   -0.854    -0.697     1.734    C     1
49   O12   -0.763     0.179     0.61     O     1
50   P2    -1.239    -0.662    -0.677    P     1
51   O13   -0.354    -1.835    -0.853    O     1
52   O14   -2.754    -1.16     -0.462    O     1
53   O15   -1.161     0.27     -1.987    O     1
54   H1     0.212    -1.564    -3.531    H     1
55   H2    -1.374    -1.468    -5.712    H     1
56   H3    -3.052    -0.942    -5.437    H     1
57   H4    -2.659     1.041    -6.89     H     1
58   H5    -2.674    -1.748    -7.744    H     1
59   H6    -3.845    -0.782    -9.49     H     1
60   H7    -0.653    -1.63     -8.944    H     1
61   H8    -2.19     -1.501   -10.636    H     1
62   H9    -0.978     1.416    -9.15     H     1
63   H10    1.754    -0.577    -7.354    H     1
64   H11    5.582     0.96    -11.922    H     1
65   H12    5.403     0.239   -10.415    H     1
66   H13    1.427     2.391   -13.139    H     1
67   H14   -3.164     2.169    10.679    H     1
68   H15    3.641     0.792    10.723    H     1
69   H16    5.853    -1.285    10.162    H     1
70   H17    6.313    -0.523     8.62     H     1
71   H18    5.919     0.488    10.03     H     1
72   H19    5.285    -1.167     6.361    H     1
73   H20    5.662    -2.185     7.772    H     1
74   H21    4.393    -2.684     6.628    H     1
75   H22    2.228    -1.609     6.634    H     1
76   H23    0.478    -1.955     6.508    H     1
77   H24   -1.198    -1.428     6.784    H     1
78   H25    0.959     0.182     5.348    H     1
79   H26   -1.819     0.637     5.771    H     1
80   H27   -1.541    -1.231     4.317    H     1
81   H28    1.237    -1.686     3.894    H     1
82   H29    0.616     0.379     2.881    H     1
83   H30   -2.162     0.834     3.304    H     1
84   H31   -0.207    -1.56      1.575    H     1
85   H32   -1.884    -1.033     1.85     H     1
86   H33   -3.296    -0.367    -0.351    H     1
@<TRIPOS>BOND
 1    1    2    2
 2    1    3    1
 3    1    4    1
 4    1   53    1
 5    3   54    1
 6    4    5    1
 7    5    6    1
 8    5   55    1
 9    5   56    1
10    6    7    1
11    6    8    1
12    6   57    1
13    7   12    1
14    8    9    1
15    8   10    1
16    8   58    1
17    9   59    1
18   10   11    1
19   10   12    1
20   10   60    1
21   11   61    1
22   12   13    1
23   12   62    1
24   13   14    1
25   13   22    1
26   14   15    2
27   14   63    1
28   15   16    1
29   16   17    1
30   16   22    2
31   17   18    1
32   17   19    2
33   18   64    1
34   18   65    1
35   19   20    1
36   20   21    2
37   20   66    1
38   21   22    1
39   23   24    1
40   23   40    2
41   24   25    2
42   24   26    1
43   26   27    1
44   26   67    1
45   27   28    2
46   27   29    1
47   29   30    2
48   29   40    1
49   30   31    1
50   31   32    2
51   31   38    1
52   32   33    1
53   32   68    1
54   33   34    1
55   33   35    2
56   34   69    1
57   34   70    1
58   34   71    1
59   35   36    1
60   35   37    1
61   36   72    1
62   36   73    1
63   36   74    1
64   37   38    2
65   37   75    1
66   38   39    1
67   39   40    1
68   39   41    1
69   41   42    1
70   41   76    1
71   41   77    1
72   42   43    1
73   42   44    1
74   42   78    1
75   43   79    1
76   44   45    1
77   44   46    1
78   44   80    1
79   45   81    1
80   46   47    1
81   46   48    1
82   46   82    1
83   47   83    1
84   48   49    1
85   48   84    1
86   48   85    1
87   49   50    1
88   50   51    2
89   50   52    1
90   50   53    1
91   52   86    1
@<TRIPOS>SUBSTRUCTURE
1   FLAVIN ADENINE DINUCLEOTIDE1   1
