# Name: flavin mononucleotide

@<TRIPOS>MOLECULE
flavin mononucleotide
52 54 1 0  0
SMALL
NO_CHARGE

@<TRIPOS>ATOM
 1   N1    -2.375    -0.67      2.115    N     1
 2   C1    -3.527    -0.439     2.74     C     1
 3   O1    -4.559    -0.724     2.16     O     1
 4   N2    -3.621     0.087     3.969    N     1
 5   C2    -2.518     0.428     4.675    C     1
 6   O2    -2.601     0.906     5.789    O     1
 7   C3    -1.206     0.195     4.031    C     1
 8   N3    -0.076     0.487     4.623    N     1
 9   C4     1.093     0.262     4.011    C     1
10   C5     2.299     0.584     4.665    C     1
11   C6     3.49      0.356     4.046    C     1
12   C7     4.776     0.703     4.752    C     1
13   C8     3.534    -0.186     2.766    C     1
14   C9     4.865    -0.427     2.102    C     1
15   C10    2.372    -0.515     2.104    C     1
16   C11    1.14     -0.295     2.713    C     1
17   N4    -0.025    -0.617     2.052    N     1
18   C12   -1.213    -0.387     2.679    C     1
19   C13    0.011    -1.195     0.706    C     1
20   C14   -0.02     -0.072    -0.331    C     1
21   O3    -1.219     0.688    -0.173    O     1
22   C15    0.018    -0.675    -1.737    C     1
23   O4     1.217    -1.436    -1.895    O     1
24   C16   -0.013     0.447    -2.775    C     1
25   O5    -1.213     1.208    -2.617    O     1
26   C17    0.025    -0.156    -4.181    C     1
27   O6    -0.0050    0.892    -5.151    O     1
28   P1     0.038     0.189    -6.598    P     1
29   O7    -1.134    -0.7      -6.75     O     1
30   O8     0.0060    1.318    -7.745    O     1
31   O9     1.389    -0.676    -6.734    O     1
32   H1    -4.498     0.226     4.361    H     1
33   H2     2.279     1.01      5.657    H     1
34   H3     5.117    -0.156     5.328    H     1
35   H4     5.534     0.971     4.016    H     1
36   H5     4.606     1.546     5.422    H     1
37   H6     5.153     0.457     1.533    H     1
38   H7     5.619    -0.63      2.863    H     1
39   H8     4.787    -1.281     1.43     H     1
40   H9     2.416    -0.939     1.111    H     1
41   H10    0.926    -1.775     0.585    H     1
42   H11   -0.852    -1.845     0.566    H     1
43   H12    0.843     0.577    -0.191    H     1
44   H13   -1.957     0.078    -0.305    H     1
45   H14   -0.845    -1.325    -1.877    H     1
46   H15    1.955    -0.826    -1.764    H     1
47   H16    0.849     1.096    -2.635    H     1
48   H17   -1.951     0.597    -2.749    H     1
49   H18    0.939    -0.736    -4.302    H     1
50   H19   -0.838    -0.806    -4.321    H     1
51   H20    0.034     0.856    -8.594    H     1
52   H21    2.127    -0.06     -6.63     H     1
@<TRIPOS>BOND
 1    1    2    1
 2    1   18    2
 3    2    3    2
 4    2    4    1
 5    4    5    1
 6    4   32    1
 7    5    6    2
 8    5    7    1
 9    7    8    2
10    7   18    1
11    8    9    1
12    9   10    2
13    9   16    1
14   10   11    1
15   10   33    1
16   11   12    1
17   11   13    2
18   12   34    1
19   12   35    1
20   12   36    1
21   13   14    1
22   13   15    1
23   14   37    1
24   14   38    1
25   14   39    1
26   15   16    2
27   15   40    1
28   16   17    1
29   17   18    1
30   17   19    1
31   19   20    1
32   19   41    1
33   19   42    1
34   20   21    1
35   20   22    1
36   20   43    1
37   21   44    1
38   22   23    1
39   22   24    1
40   22   45    1
41   23   46    1
42   24   25    1
43   24   26    1
44   24   47    1
45   25   48    1
46   26   27    1
47   26   49    1
48   26   50    1
49   27   28    1
50   28   29    2
51   28   30    1
52   28   31    1
53   30   51    1
54   31   52    1
@<TRIPOS>SUBSTRUCTURE
1   FLAVIN MONONUCLEOTIDE1   1
