# Name: NADPH

@<TRIPOS>MOLECULE
NADPH
78 82 1 0  0
SMALL
NO_CHARGE

@<TRIPOS>ATOM
 1   P1    -1.275     0.043    -0.038    P     1
 2   O1    -1.71     -1.293    -0.5      O     1
 3   O2    -2.565     0.915     0.371    O     1
 4   O3    -0.479     0.787    -1.223    O     1
 5   C1    -1.385     0.901    -2.322    C     1
 6   C2    -0.687     1.603    -3.489    C     1
 7   O4     0.439     0.824    -3.924    O     1
 8   C3    -1.654     1.723    -4.682    C     1
 9   O5    -1.863     3.094    -5.029    O     1
10   C4    -0.927     0.977    -5.832    C     1
11   O6    -1.073     1.68     -7.068    O     1
12   C5     0.546     1.001    -5.353    C     1
13   N1     1.304    -0.099    -5.954    N     1
14   C6     1.388    -1.374    -5.479    C     1
15   N2     2.145    -2.09     -6.259    N     1
16   C7     2.594    -1.322    -7.28     C     1
17   C8     3.422    -1.544    -8.394    C     1
18   N3     3.976    -2.791    -8.627    N     1
19   N4     3.659    -0.53     -9.219    N     1
20   C9     3.134     0.662    -9.005    C     1
21   N5     2.354     0.916    -7.976    N     1
22   C10    2.056    -0.037    -7.1      C     1
23   O7    -0.309    -0.118     1.238    O     1
24   P2    -1.165    -0.865     2.378    P     1
25   O8    -2.352    -0.049     2.718    O     1
26   O9    -1.64     -2.304     1.835    O     1
27   O10   -0.255    -1.061     3.692    O     1
28   C11   -1.066    -1.726     4.661    C     1
29   C12   -0.257    -1.944     5.941    C     1
30   O11    0.15     -0.676     6.5      O     1
31   C13   -1.136    -2.592     7.033    C     1
32   O12   -0.916    -4.003     7.081    O     1
33   C14   -0.661    -1.924     8.345    C     1
34   O13   -0.136    -2.903     9.244    O     1
35   C15    0.446    -0.949     7.887    C     1
36   N6     0.394     0.286     8.672    N     1
37   C16    1.485     0.682     9.394    C     1
38   C17    1.592     1.952     9.826    C     1
39   C18    2.727     2.334    10.58     C     1
40   O14    3.594     1.517    10.831    O     1
41   N7     2.848     3.602    11.019    N     1
42   C19    0.528     2.97      9.53     C     1
43   C20   -0.737     2.307     9.075    C     1
44   C21   -0.762     1.053     8.683    C     1
45   P3    -1.639     0.622    -8.141    P     1
46   O15   -2.944     0.099    -7.677    O     1
47   O16   -1.829     1.351    -9.564    O     1
48   O17   -0.597    -0.594    -8.296    O     1
49   H1    -2.238     1.777     0.665    H     1
50   H2    -1.703    -0.093    -2.635    H     1
51   H3    -2.256     1.481    -2.017    H     1
52   H4    -0.355     2.594    -3.179    H     1
53   H5    -2.604     1.239    -4.454    H     1
54   H6    -2.317     3.505    -4.281    H     1
55   H7    -1.29     -0.046    -5.924    H     1
56   H8     1.011     1.958    -5.588    H     1
57   H9     0.898    -1.737    -4.588    H     1
58   H10    4.545    -2.932    -9.399    H     1
59   H11    3.795    -3.524    -8.018    H     1
60   H12    3.354     1.459    -9.7      H     1
61   H13   -0.838    -2.803     1.626    H     1
62   H14   -1.388    -2.69      4.267    H     1
63   H15   -1.941    -1.115     4.884    H     1
64   H16    0.614    -2.566     5.737    H     1
65   H17   -2.189    -2.377     6.853    H     1
66   H18   -1.489    -4.352     7.777    H     1
67   H19   -1.48     -1.377     8.813    H     1
68   H20   -0.857    -3.514     9.444    H     1
69   H21    1.426    -1.417     7.981    H     1
70   H22    2.266    -0.028     9.619    H     1
71   H23    3.626     3.864    11.535    H     1
72   H24    2.159     4.254    10.815    H     1
73   H25    0.325     3.556    10.426    H     1
74   H26    0.888     3.634     8.743    H     1
75   H27   -1.656     2.876     9.075    H     1
76   H28   -1.695     0.614     8.363    H     1
77   H29   -2.169     0.684   -10.176    H     1
78   H30    0.236    -0.211    -8.599    H     1
@<TRIPOS>BOND
 1    1    2    2
 2    1    3    1
 3    1    4    1
 4    1   23    1
 5    3   49    1
 6    4    5    1
 7    5    6    1
 8    5   50    1
 9    5   51    1
10    6    7    1
11    6    8    1
12    6   52    1
13    7   12    1
14    8    9    1
15    8   10    1
16    8   53    1
17    9   54    1
18   10   11    1
19   10   12    1
20   10   55    1
21   11   45    1
22   12   13    1
23   12   56    1
24   13   14    1
25   13   22    1
26   14   15    2
27   14   57    1
28   15   16    1
29   16   17    1
30   16   22    2
31   17   18    1
32   17   19    2
33   18   58    1
34   18   59    1
35   19   20    1
36   20   21    2
37   20   60    1
38   21   22    1
39   23   24    1
40   24   25    2
41   24   26    1
42   24   27    1
43   26   61    1
44   27   28    1
45   28   29    1
46   28   62    1
47   28   63    1
48   29   30    1
49   29   31    1
50   29   64    1
51   30   35    1
52   31   32    1
53   31   33    1
54   31   65    1
55   32   66    1
56   33   34    1
57   33   35    1
58   33   67    1
59   34   68    1
60   35   36    1
61   35   69    1
62   36   37    1
63   36   44    1
64   37   38    2
65   37   70    1
66   38   39    1
67   38   42    1
68   39   40    2
69   39   41    1
70   41   71    1
71   41   72    1
72   42   43    1
73   42   73    1
74   42   74    1
75   43   44    2
76   43   75    1
77   44   76    1
78   45   46    2
79   45   47    1
80   45   48    1
81   47   77    1
82   48   78    1
@<TRIPOS>SUBSTRUCTURE
1   NADPH1   1
