# Name: alanine

@<TRIPOS>MOLECULE
alanine
13 12 1 0 0
SMALL
NO_CHARGE

@<TRIPOS>ATOM
 1    C1     -0.1340    -0.0470    -0.1010    C    1
 2    C2     -1.3790     0.8060     0.1220    C    1
 3    C3      1.0980     0.8140     0.0380    C    1
 4    O1      1.8700     0.9310    -0.9000    O    1
 5    H1     -0.1640    -0.4790    -1.0990    H    1
 6    H2     -2.2670     0.1850     0.0220    H    1
 7    H3     -1.4090     1.6040    -0.6170    H    1
 8    H4     -1.3490     1.2380     1.1200    H    1
 9    N1     -0.0937    -1.1246     0.8980    N    1
10    O2      1.3614     1.4938     1.2682    O    1
11    H5      2.1855     1.9992     1.1889    H    1
12    H6     -0.0629    -0.6881     1.9081    H    1
13    H7     -0.9912    -1.7525     0.7973    H    1
@<TRIPOS>BOND
 1    1   2   1
 2    1   3   1
 3    1   5   1
 4    1   9   1
 5    2   6   1
 6    2   7   1
 7    2   8   1
 8    3   4   2
 9    3  10   1
10    9  12   1
11    9  13   1
12   10  11   1
@<TRIPOS>SUBSTRUCTURE
 1   ALANINE1   1
