# Name: arginine

@<TRIPOS>MOLECULE
arginine
27 26 1 0 0
SMALL
NO_CHARGE

@<TRIPOS>ATOM
 1    C1     2.8070    0.0220    1.0110    C    1
 2    C2     1.4420   -0.6250    0.7850    C    1
 3    C3     0.3740    0.4630    0.6790    C    1
 4    C4    -0.9920   -0.1830    0.4540    C    1
 5    N1    -2.0190    0.8630    0.3520    N    1
 6    C5    -3.2340    0.2880    0.1510    C    1
 7    N2    -4.3070    1.0410    0.0300    N    1
 8    N3    -3.3420   -1.0660    0.0760    N    1
 9    C6     3.8620   -1.0540    1.1160    C    1
10    O1     4.5280   -1.1580    2.1320    O    1
11    H1     2.7870    0.6000    1.9320    H    1
12    H2     1.2090   -1.2820    1.6210    H    1
13    H3     1.4620   -1.2040   -0.1360    H    1
14    H4     0.6070    1.1200   -0.1560    H    1
15    H5     0.3540    1.0420    1.6010    H    1
16    H6    -1.2250   -0.8400    1.2900    H    1
17    H7    -0.9710   -0.7620   -0.4670    H    1
18    H8    -1.8020    1.4730   -0.4240    H    1
19    H9    -5.1160    0.4540   -0.1130    H    1
20    H10   -4.4320    1.5870    0.8700    H    1
21    H11   -4.3080   -1.3190   -0.0750    H    1
22    H12   -2.7810   -1.4060   -0.6920    H    1
23    O2     4.0804   -1.9500    0.0231    O    1
24    H13    4.7871   -2.5737    0.2520    H    1
25    N4     3.1227    0.9090   -0.1179    N    1
26    H14    3.1423    0.3775   -0.9647    H    1
27    H15    2.4244    1.6213   -0.1882    H    1
@<TRIPOS>BOND
 1    1    2   1
 2    1    9   1
 3    1   11   1
 4    1   25   1
 5    2    3   1
 6    2   12   1
 7    2   13   1
 8    3    4   1
 9    3   14   1
10    3   15   1
11    4    5   1
12    4   16   1
13    4   17   1
14    5    6   1
15    5   18   1
16    6    7   2
17    6    8   1
18    7   19   1
19    7   20   1
20    8   21   1
21    8   22   1
22    9   10   2
23    9   23   1
24   23   24   1
25   25   26   1
26   25   27   1
@<TRIPOS>SUBSTRUCTURE
 1   ARGININE1   1
