# Name: asparagine

@<TRIPOS>MOLECULE
asparagine
17 16 1 0 0
SMALL
NO_CHARGE

@<TRIPOS>ATOM
 1    C1     1.0000    0.0410    0.6670    C    1
 2    C2    -0.2540   -0.8090    0.4730    C    1
 3    C3    -1.4660    0.0880    0.4100   C    1
 4    O1    -1.3350    1.3070    0.5120    O    1
 5    N1    -2.6760   -0.4380    0.2440    N    1
 6    N2     1.1410    0.9900   -0.4800    N    1
 7    C4     2.2130   -0.8570    0.7290    C    1
 8    O2     2.9170   -0.8620    1.7250    O    1
 9    H1     0.9170    0.6040    1.5940    H    1
10    H2    -0.3570   -1.5000    1.3070    H    1
11    H3    -0.1710   -1.3720   -0.4550    H    1
12    H4     0.3100    1.6050   -0.5230    H    1
13    H5     1.2200    0.4550   -1.3630    H    1
14    H6    -3.4870    0.1620    0.2030    H    1
15    H7    -2.7840   -1.4390    0.1600    H    1
16    O3     2.5352   -1.7008   -0.3796    O    1
17    H8     3.4444   -2.2763   -0.1510    H    1
@<TRIPOS>BOND
 1    1    2    1
 2    1    6    1
 3    1    7    1
 4    1    9    1
 5    2    3    1
 6    2   10    1
 7    2   11    1
 8    3    4    2
 9    3    5    1
10    5   14    1
11    5   15    1
12    6   12    1
13    6   13    1
14    7    8    2
15    7   16    1
16   16   17    1
@<TRIPOS>SUBSTRUCTURE
 1   ASPARAGINE1   1
