Name: Edited molecule

@<TRIPOS>MOLECULE
Edited molecule
16 15 1 0 0
SMALL
NO_CHARGE

@<TRIPOS>ATOM
 1    C1    -0.6080    0.1070    0.2710    C    1
 2    C2     0.7090    0.8390    0.0190    C    1
 3    C3     1.8550   -0.1400    0.1140    C    1
 4    O1     3.0000    0.2440   -0.0570    O    1
 5    N1    -0.7850   -0.9690   -0.7520    N    1
 6    C4    -1.7540    1.0850    0.1760    C    1
 7    O2    -2.4840    1.2660    1.1370    O    1
 8    H1    -0.5920   -0.3370    1.2650    H    1
 9    H2     0.8380    1.6210    0.7630    H    1
10    H3     0.6920    1.2820   -0.9750    H    1
11    H4     0.0000   -1.6400   -0.6860    H    1
12    H5    -0.8010   -0.5470   -1.6970    H    1
13    O3    -1.9849    1.8003   -1.0405    O    1
14    H6    -2.8565    2.4601   -0.9187    H    1
15    O4     1.5971   -1.5162    0.4046    O    1
16    H7     2.4263   -1.9993    0.4295    H    1
@<TRIPOS>BOND
 1    1   2    1
 2    1   5    1
 3    1   6    1
 4    1   8    1
 5    2   3    1
 6    2   9    1
 7    2   10   1
 8    3   4    2
 9    3   15   1
10    5   11   1
11    5   12   1
12    6   7    2
13    6   13   1
14   13   14   1
15   15   16   1
@<TRIPOS>SUBSTRUCTURE
 1   Edited molecule1   1
