# Name: cysteine

@<TRIPOS>MOLECULE
cysteine
14 13 1 0 0
SMALL
NO_CHARGE

@<TRIPOS>ATOM
 1    C1     0.7190   -0.1540    0.0100    C    1
 2    C2     1.9970    0.4500    0.5410    C    1
 3    O1     3.0520    0.2520   -0.0400    O    1
 4    C3    -0.2710    0.9620   -0.3220    C    1
 5    S1    -1.8120    0.2350   -0.9620    S    1
 6    H1     0.9340   -0.7270   -0.8890    H    1
 7    H2     0.1600    1.6170   -1.0760    H    1
 8    H3    -0.4870    1.5350    0.5770    H    1
 9    H4    -2.4800    1.3660   -1.1670    H    1
10    O2     1.9722    1.2532    1.7239    O    1
11    N1     0.1351   -1.0387    1.0284    N    1
12    H5     2.9901    1.6022    1.9521    H    1
13    H6    -0.0719   -0.4612    1.9415    H    1
14    H7    -0.8026   -1.4691    0.6469    H    1
@<TRIPOS>BOND
 1    1    2    1
 2    1    4    1
 3    1    6    1
 4    1   11    1
 5    2    3    2
 6    2   10    1
 7    4    5    1
 8    4    7    1
 9    4    8    1
10    5    9    1
11   10   12    1
12   11   13    1
13   11   14    1
@<TRIPOS>SUBSTRUCTURE
 1   CYSTEINE1   1
