# Name: glutamine

@<TRIPOS>MOLECULE
glutamine
20 19 1 0 0
SMALL
NO_CHARGE

@<TRIPOS>ATOM
 1    C1     1.6770    0.0080   -0.8600    C    1
 2    C2     0.3140    0.6690   -0.6580    C    1
 3    C3    -0.7680   -0.4080   -0.5870    C    1
 4    C4    -2.1150    0.2450   -0.3880    C    1
 5    O1    -2.1990    1.4700   -0.3090    O    1
 6    N1    -3.2100   -0.5040   -0.2970    N    1
 7    N2     1.9610   -0.9090    0.2850    N    1
 8    C5     2.7470    1.0720   -0.9310    C    1
 9    O2     3.4360    1.1790   -1.9310    O    1
10    H1     1.6710   -0.5610   -1.7880    H    1
11    H2     0.1080    1.3360   -1.4920    H    1
12    H3     0.3210    1.2380    0.2690    H    1
13    H4     1.2280   -1.6380    0.3340    H    1
14    H5     1.9680   -0.3670    1.1670    H    1
15    H6    -0.5610   -1.0750    0.2460    H    1
16    H7    -0.7740   -0.9770   -1.5150    H    1
17    H8    -4.1110   -0.0680   -0.1640    H    1
18    H9    -3.1400   -1.5100   -0.3620    H    1
19    O3     2.9508    1.9546    0.1756    O    1
20    H10    3.7670    2.6539   -0.0580    H    1
@<TRIPOS>BOND
 1    1    2    1
 2    1    7    1
 3    1    8    1
 4    1   10    1
 5    2    3    1
 6    2   11    1
 7    2   12    1
 8    3    4    1
 9    3   15    1
10    3   16    1
11    4    5    2
12    4    6    1
13    6   17    1
14    6   18    1
15    7   13    1
16    7   14    1
17    8    9    2
18    8   19    1
19   19   20    1
@<TRIPOS>SUBSTRUCTURE
 1   GLUTAMINE1   1
