# Name: glutamate

@<TRIPOS>MOLECULE
glutamate
18 17 1 0 0
SMALL
NO_CHARGE

@<TRIPOS>ATOM
 1    C1    -1.1980   -0.2150    0.7360    C    1
 2    C2     0.1080    0.5590    0.5600    C    1
 3    C3     1.2750   -0.4230    0.4760    C    1
 4    C4     2.5650    0.3420    0.3010    C    1
 5    O1     3.6230   -0.2590    0.2120    O    1
 6    O2     2.5490    1.6110    0.2470    O    1
 7    N1    -1.3980   -1.1280   -0.4310    N    1
 8    C5    -2.3510    0.7560    0.8200    C    1
 9    O3    -3.0540    0.7840    1.8160    O    1
10    H1    -1.1500   -0.8020    1.6520    H    1
11    H2     0.2530    1.2230    1.4090    H    1
12    H3     0.0610    1.1460   -0.3550    H    1
13    H4    -0.6070   -1.7930   -0.4880    H    1
14    H5    -1.4420   -0.5700    -1.301    H    1
15    H6     1.1300   -1.0880   -0.3740    H    1
16    H7     1.3220   -1.0100    1.3910    H    1
17    O4    -2.6201    1.6420   -0.2697    O    1
18    H8    -3.4919    2.2676   -0.0277    H    1
@<TRIPOS>BOND
 1    1    2    1
 2    1    7    1
 3    1    8    1
 4    1   10    1
 5    2    3    1
 6    2   11    1
 7    2   12    1
 8    3    4    1
 9    3   15    1
10    3   16    1
11    4    5    2
12    4    6    1
13    7   13    1
14    7   14    1
15    8    9    2
16    8   17    1
17   17   18    1
@<TRIPOS>SUBSTRUCTURE
 1   GLUTAMATE1   1
