# Name: glycine

@<TRIPOS>MOLECULE
glycine
10 9 1 0 0
SMALL
NO_CHARGE

@<TRIPOS>ATOM
 1    C1     0.0660   -0.1810    0.8550    C    1
 2    C2     1.0360    0.6000    0.0020    C    1
 3    O1     1.8317    1.3616    0.5254    O    1
 4    H1     0.2250   -1.2470    0.7030    H    1
 5    H2     0.2250    0.0630    1.9030    H    1
 6    O2     1.0204    0.4477   -1.4198    O    1
 7    H3     1.7912    1.0929   -1.8666    H    1
 8    N1     -1.311    0.1669    0.4756    N    1
 9    H4     -1.473   -0.0794   -0.5841    H    1
10    H5     -2.018   -0.4029    1.0964    H    1
@<TRIPOS>BOND
 1    1    2    1
 2    1    4    1
 3    1    5    1
 4    1    8    1
 5    2    3    2
 6    2    6    1
 7    6    7    1
 8    8    9    1
 9    8   10    1
@<TRIPOS>SUBSTRUCTURE
 1   GLYCINE1   1
