# Name: histidine

@<TRIPOS>MOLECULE
histidine
20 20 1 0 0
SMALL
NO_CHARGE

@<TRIPOS>ATOM
 1    C1     1.2950    1.0360    0.4830    C    1
 2    C2     0.7090   -0.2040    1.1560    C    1
 3    C3    -0.5460   -0.6250    0.4290    C    1
 4    N1    -1.8370   -0.2080    0.7000    N    1
 5    C4    -2.6680   -0.8420   -0.2060    C    1
 6    N2    -1.9190   -1.6180   -1.0010    N    1
 7    C5    -0.6300   -1.5140   -0.6490    C    1
 8    N3     1.6250    0.7210   -0.9410    N    1
 9    C6     2.5500    1.4570    1.2090    C    1
10    O1     2.6190    2.5650    1.7170    O    1
11    H1    -3.7400   -0.7300   -0.2630    H    1
12    H2     0.1990   -2.0270   -1.1150    H    1
13    H3    -2.1190    0.4390    1.4220    H    1
14    H4     1.4360   -1.0130    1.1230    H    1
15    H5     0.4680    0.0250    2.1920    H    1
16    H6     0.5680    1.8450    0.5160    H    1
17    H7     0.7649    0.4333   -1.4391    H    1
18    H8     2.3167   -0.0482   -0.9730    H    1
19    O2     3.6583    0.5582    1.3025    O    1
20    H9     4.4737    1.0379    1.8637    H    1
@<TRIPOS>BOND
 1    1    2    1
 2    1    8    1
 3    1    9    1
 4    1   16    1
 5    2    3    1
 6    2   14    1
 7    2   15    1
 8    3    4    1
 9    3    7    2
10    4    5    1
11    4   13    1
12    5    6    2
13    5   11    1
14    6    7    1
15    7   12    1
16    8   17    1
17    8   18    1
18    9   10    2
19    9   19    1
20   19   20    1
@<TRIPOS>SUBSTRUCTURE
 1   HISTIDINE1   1
