# Name: isoleucine

@<TRIPOS>MOLECULE
isoleucine
22 21 1 0 0
SMALL
NO_CHARGE

@<TRIPOS>ATOM
 1    C1     1.2250    0.3120    0.2470    C    1
 2    C2    -0.0650   -0.4640   -0.0120    C    1
 3    C3    -0.2480   -1.5220    1.0720    C    1
 4    C4    -1.2510    0.4990    0.0100    C    1
 5    C5    -2.5400   -0.2760   -0.2480    C    1
 6    N1     1.4050    1.3490   -0.8150    N    1
 7    C6     2.3980   -0.6390    0.2250    C    1
 8    O1     3.1030   -0.7610    1.2130    O    1
 9    H1     1.1690    0.7950    1.2200    H    1
10    H2    -0.0090   -0.9480   -0.9850    H    1
11    H3     0.6020    2.0010   -0.8000    H    1
12    H4     1.4590    0.8890   -1.7410    H    1
13    H5    -1.1210    1.2530   -0.7630    H    1
14    H6    -1.3080    0.9820    0.9830    H    1
15    H7    -1.1670   -2.0750    0.8880    H    1
16    H8     0.5960   -2.2080    1.0560    H    1
17    H9    -0.3050   -1.0390    2.0450    H    1
18    H10   -3.3850    0.4090   -0.2320    H    1
19    H11   -2.6710   -1.0310    0.5250    H    1
20    H12   -2.4840   -0.7600   -1.2210    H    1
21    O2     2.6806   -1.3978   -0.9537    O    1
22    H13    3.5635   -2.0304   -0.7802    H    1
@<TRIPOS>BOND
 1    1    2    1
 2    1    6    1
 3    1    7    1
 4    1    9    1
 5    2    3    1 
 6    2    4    1
 7    2   10    1
 8    3   15    1
 9    3   16    1
10    3   17    1
11    4    5    1
12    4   13    1
13    4   14    1
14    5   18    1
15    5   19    1
16    5   20    1
17    6   11    1
18    6   12    1
19    7    8    2
20    7   21    1
21   21   22    1
@<TRIPOS>SUBSTRUCTURE
 1   ISOLEUCINE1   1
