# Name: leucine

@<TRIPOS>MOLECULE
leucine
22 21 1 0 0
SMALL
NO_CHARGE

@<TRIPOS>ATOM
 1    C1     1.1080    0.3440   -0.1710    C    1
 2    C2    -0.0490   -0.6270   -0.4020    C    1
 3    C3    -1.3110   -0.0850    0.2680    C    1
 4    C4    -2.2080   -1.2490    0.6810    C    1
 5    C5    -2.0620    0.8130   -0.7110    C    1
 6    N1     1.1330    1.3590   -1.2680    N    1
 7    C6     2.4110   -0.4190   -0.1600    C    1
 8    O1     3.1210   -0.3980    0.8310    O    1
 9    H1     0.9740    0.8460    0.7850    H    1
10    H2     0.2000   -1.5970    0.0240    H    1
11    H3    -0.2240   -0.7350   -1.4710    H    1
12    H4     0.2400    1.8820   -1.2753    H    1
13    H5     1.2599    0.8814   -2.1775    H    1
14    H6    -1.0350    0.4900    1.1490    H    1
15    H7    -3.1060   -0.8630    1.1580    H    1
16    H8    -1.6720   -1.8890    1.3790    H    1
17    H9    -2.4840   -1.8240   -0.2000    H    1
18    H10   -3.1060    0.8810   -0.4130    H    1
19    H11   -1.6170    1.8060   -0.7060    H    1
20    H12   -1.9970    0.3910   -1.7120    H    1
21    O2     2.8108   -1.1657   -1.3122    O    1
22    H13    3.7790   -1.6503   -1.1178    H    1
@<TRIPOS>BOND
 1    1    2    1
 2    1    6    1
 3    1    7    1
 4    1    9    1
 5    2    3    1
 6    2   10    1
 7    2   11    1
 8    3    4    1
 9    3    5    1
10    3   14    1
11    4   15    1
12    4   16    1
13    4   17    1
14    5   18    1
15    5   19    1
16    5   20    1
17    6   12    1
18    6   13    1
19    7    8    2
20    7   21    1
21   21   22    1
@<TRIPOS>SUBSTRUCTURE
 1   LEUCINE1   1
