# Name: lysine

@<TRIPOS>MOLECULE
lysine
25 24 1 0 0
SMALL
NO_CHARGE

@<TRIPOS>ATOM
 1    C1     2.3650   -0.2830    0.4470    C    1
 2    C2     1.0570   -1.0070    0.1300    C    1
 3    C3    -0.0970   -0.0050    0.1510    C    1
 4    C4    -1.4050   -0.7290   -0.1660    C    1
 5    C5    -2.5590    0.2730   -0.1460    C    1
 6    N1    -3.8390   -0.4350   -0.4560    N    1
 7    C6     3.5050   -1.2730    0.4270    C    1
 8    O1     4.1790   -1.4480    1.4290    O    1
 9    H1     2.2980    0.1730    1.4330    H    1
10    H2     0.8800   -1.7790    0.8760    H    1
11    H3     1.1240   -1.4620   -0.8550    H    1
12    H4     0.0800    0.7670   -0.5950    H    1
13    H5    -0.1640    0.4510    1.1360    H    1
14    H6    -1.5820   -1.5010    0.5790    H    1
15    H7    -1.3380   -1.1840   -1.1520    H    1
16    H8    -2.3820    1.0450   -0.8910    H    1
17    H9    -2.6260    0.7280    0.8400    H    1
18    H10   -4.6200    0.2430   -0.4420    H    1
19    H11   -4.0070   -1.1700    0.2530    H    1
20    H12   -3.7750   -0.8690   -1.3930    H    1
21    O2     3.7956   -2.0041   -0.7671    O    1
22    N2     2.6039    0.7611   -0.5598    N    1
23    H13    4.6533   -2.6699   -0.5905    H    1
24    H14    2.6557    0.3032   -1.5586    H    1
25    H15    1.7815    1.4912   -0.5339    H    1
@<TRIPOS>BOND
 1    1    2    1
 2    1    7    1
 3    1    9    1
 4    1   22    1
 5    2    3    1
 6    2   10    1
 7    2   11    1
 8    3    4    1
 9    3   12    1
10    3   13    1
11    4    5    1
12    4   14    1
13    4   15    1
14    5    6    1
15    5   16    1
16    5   17    1
17    6   18    1
18    6   19    1
19    6   20    1
20    7    8    2
21    7   21    1
22   21   23    1
23   22   24    1
24   22   25    1
@<TRIPOS>SUBSTRUCTURE
 1   LYSINE1   1
