# Name: methionine

@<TRIPOS>MOLECULE
methionine
20 19 1 0 0
SMALL
NO_CHARGE

@<TRIPOS>ATOM
 1    C1     1.9420    0.3580   -0.5700    C    1
 2    C2     0.6200    1.0680   -0.2790    C    1
 3    C3    -0.5190    0.0510   -0.2970    C    1
 4    S1    -2.0930    0.8960    0.0500    S    1
 5    C4    -3.3540   -0.4160    0.0000    C    1
 6    C5     3.0680    1.3640   -0.5530    C    1
 7    O1     3.7500    1.5330   -1.5500    O    1
 8    H1     1.8920   -0.1130   -1.5490    H    1
 9    H2     0.4410    1.8270   -1.0380    H    1
10    H3     0.6700    1.5400    0.7000    H    1
11    H4    -0.3400   -0.7080    0.4620    H    1
12    H5    -0.5690   -0.4210   -1.2760    H    1
13    H6    -4.3330    0.0150    0.1990    H    1
14    H7    -3.3560   -0.8790   -0.9850    H    1
15    H8    -3.1270   -1.1660    0.7540    H    1
16    O2     3.3348    2.1182    0.6323    O    1
17    N1     2.1839   -0.6668    0.4558    N    1
18    H9     4.1927    2.7843    0.4583    H    1
19    H10    2.2410   -0.1896    1.4452    H    1
20    H11    1.3603   -1.3959    0.4478    H    1
@<TRIPOS>BOND
 1    1    2    1
 2    1    6    1
 3    1    8    1
 4    1   17    1
 5    2    3    1
 6    2    9    1
 7    2   10    1
 8    3    4    1
 9    3   11    1
10    3   12    1
11    4    5    1
12    5   13    1
13    5   14    1
14    5   15    1
15    6    7    2
16    6   16    1
17   16   18    1
18   17   19    1
19   17   20    1
@<TRIPOS>SUBSTRUCTURE
 1   METHIONINE1   1
