# Name: phenylalanine

@<TRIPOS>MOLECULE
phenylalanine
23 23 1 0 0
SMALL
NO_CHARGE

@<TRIPOS>ATOM
 1    C1     1.7230   -0.6060    0.5530    C    1
 2    C2     0.9380    0.4930    1.2680    C    1
 3    C3    -0.4160    0.6480    0.6180    C    1
 4    C4    -1.5040   -0.1030    1.0770    C    1
 5    C5    -2.7600    0.0410    0.4750    C    1
 6    C6    -2.9270    0.9380   -0.5880    C    1
 7    C7    -1.8390    1.6890   -1.0470    C    1
 8    C8    -0.5840    1.5450   -0.4440    C    1
 9    C9     3.0760   -0.7620    1.2030    C    1
10    O1     4.0910   -0.5870    0.5480    O    1
11    H1    -3.8950    1.0490   -1.0520    H    1
12    H2    -1.9680    2.3810   -1.8670    H    1
13    H3     0.2550    2.1250   -0.7990    H    1
14    H4    -1.3750   -0.7950    1.8970    H    1
15    H5    -3.5990   -0.5390    0.8290    H    1
16    H6     0.8090    0.2240    2.3140    H    1
17    H7     1.4830    1.4310    1.1990    H    1
18    H8     1.8510   -0.3370   -0.4940    H    1
19    O2     3.1694   -1.1155    2.5855    O    1
20    N1     0.9856   -1.8743    0.6454    N    1
21    H9     4.2281   -1.1825    2.8766    H    1
22    H10    0.8546   -2.1467    1.7031    H    1
23    H11   -0.00064  -1.7610    0.1716    H    1
@<TRIPOS>BOND
 1    1    2    1
 2    1    9    1
 3    1   18    1
 4    1   20    1
 5    2    3    1
 6    2   16    1
 7    2   17    1
 8    3    4    2
 9    3    8    1
10    4    5    1
11    4   14    1
12    5    6    2
13    5   15    1
14    6    7    1
15    6   11    1
16    7    8    2
17    7   12    1
18    8   13    1
19    9   10    2
20    9   19    1
21   19   21    1
22   20   22    1
23   20   23    1
@<TRIPOS>SUBSTRUCTURE
 1   PHENYLALANINE1   1
