# Name: proline

@<TRIPOS>MOLECULE
proline
17 17 1 0 0
SMALL
NO_CHARGE

@<TRIPOS>ATOM
 1    N1    -0.5350    0.7680    -1.0270    N    1
 2    C1    -1.8117    0.5412    -0.2833    C    1
 3    C2    -1.5803   -0.7714     0.4880    C    1
 4    C3    -0.2030   -1.3250     0.0764    C    1
 5    C4     0.5357   -0.0576    -0.3911    C    1
 6    C5     1.6473   -0.3807    -1.3607    C    1
 7    O1     2.7943   -0.0493    -1.1073    O    1
 8    H1    -1.5835   -0.5678     1.5571    H    1
 9    H2    -2.3533   -1.4889     0.2227    H    1
10    H3    -2.0218    1.3640     0.3959    H    1
11    H4    -2.6540    0.4508    -0.9671    H    1
12    H5    -0.4301    1.6004    -1.6343    H    1
13    H6    -0.2904   -2.0555    -0.7257    H    1
14    H7     0.3044   -1.7984     0.9138    H    1
15    H8     1.0101    0.4640     0.4388    H    1
16    O2     1.3554   -1.0745    -2.5766    O    1
17    H9     2.2835   -1.2183    -3.1492    H    1
@<TRIPOS>BOND
 1    1    2    1
 2    1    5    1
 3    1   12    1
 4    2    3    1
 5    2   10    1
 6    2   11    1
 7    3    4    1
 8    3    8    1
 9    3    9    1
10    4    5    1
11    4   13    1
12    4   14    1
13    5    6    1
14    5   15    1
15    6    7    2
16    6   16    1
17   16   17    1
@<TRIPOS>SUBSTRUCTURE
 1   PROLINE1   1
