# Name: serine

@<TRIPOS>MOLECULE
serine
14 13 1 0 0
SMALL
NO_CHARGE

@<TRIPOS>ATOM
 1    C1     0.4310    0.0770   -0.2300    C    1
 2    C2    -0.8960    0.7940    0.0130    C    1
 3    O1    -1.9710   -0.1430   -0.1000    O    1
 4    C3     1.5660    1.0660   -0.1110    C    1
 5    O2     2.3060    1.2620   -1.0600    O    1
 6    H1     0.4320   -0.3580   -1.2270    H    1
 7    H2    -1.0230    1.5820   -0.7260    H    1
 8    H3    -0.8970    1.2280    1.0100    H    1
 9    H4    -2.8180    0.3050    0.0530    H    1
10    O3     1.7743    1.7719    1.1151    O    1
11    N1     0.6030   -0.9877    0.7688    N    1
12    H5     2.6417    2.4403    1.0111    H    1
13    H6     0.6197   -0.5467    1.7764    H    1
14    H7    -0.2324   -1.6994    0.6945    H    1
@<TRIPOS>BOND
 1    1    2    1
 2    1    4    1
 3    1    6    1
 4    1   11    1
 5    2    3    1
 6    2    7    1
 7    2    8    1
 8    3    9    1
 9    4    5    2
10    4   10    1
11   10   12    1
12   11   13    1
13   11   14    1
@<TRIPOS>SUBSTRUCTURE
 1   SERINE1   1
