# Name: threonine

@<TRIPOS>MOLECULE
threonine
17 16 1 0 0
SMALL
NO_CHARGE

@<TRIPOS>ATOM
 1    C1     0.5170    0.0940   -0.2490    C    1
 2    C2    -0.8140    0.8030   -0.0030    C    1
 3    C3    -1.9550   -0.2040   -0.1180    C    1
 4    O1    -0.8140    1.3760    1.3070    O    1
 5    C4     1.6460    1.0910   -0.1360    C    1
 6    O2     2.3810    1.2900   -1.0890    O    1
 7    H1     0.5170   -0.3420   -1.2460    H    1
 8    H2    -0.9490    1.5890   -0.7430    H    1
 9    H3    -2.9030    0.3000    0.0570    H    1
10    H4    -1.9550   -0.6410   -1.1140    H    1
11    H5    -1.8200   -0.9900    0.6220    H    1
12    H6    -1.6560    1.8280    1.4710    H    1
13    N1     0.6989   -0.9680    0.7510    N    1
14    H7     0.6995   -0.5271    1.7588    H    1
15    H8    -0.1235   -1.6939    0.6694    H    1
16    O3     1.8532    1.8005    1.0882    O    1
17    H9     2.7235    2.4652    0.9845    H    1
@<TRIPOS>BOND
 1    1    2    1
 2    1    5    1
 3    1    7    1
 4    1   13    1
 5    2    3    1
 6    2    4    1
 7    2    8    1
 8    3    9    1
 9    3   10    1
10    3   11    1
11    4   12    1
12    5    6    2
13    5   16    1
14   13   14    1
15   13   15    1
16   16   17    1
@<TRIPOS>SUBSTRUCTURE
 1   THREONINE1   1
