# Name: tryptophan

@<TRIPOS>MOLECULE
tryptophan
27 28 1 0 0
SMALL
NO_CHARGE

@<TRIPOS>ATOM
 1    C1     2.1340   -1.3750    0.5020    C    1
 2    C2     1.2800   -0.3710    1.2750    C    1
 3    C3     0.3310    0.3190    0.3240    C    1
 4    C4    -1.0480    0.0980    0.2270    C    1
 5    C5    -1.5430    0.9400   -0.7760    C    1
 6    N1    -0.4830    1.6680   -1.2870    N    1
 7    C6     0.6700    1.2950   -0.6210    C    1
 8    C7    -2.9070    0.9300   -1.0900    C    1
 9    C8    -3.7770    0.0760   -0.4010    C    1
10    C9    -3.2830   -0.7660    0.6020    C    1
11    C10   -1.9190   -0.7550    0.9160    C    1
12    C11    3.1710   -1.9690    1.4250    C    1
13    O1     4.3580   -1.8350    1.1770    O    1
14    H1     1.6600    1.6880   -0.7980    H    1
15    H2    -0.5420    2.3560   -2.0240    H    1
16    H3    -4.8300    0.0680   -0.6430    H    1
17    H4    -3.9540   -1.4240    1.1340    H    1
18    H5    -1.5370   -1.4050    1.6900    H    1
19    H6    -3.2880    1.5800   -1.8630    H    1
20    H7     0.7100   -0.8930    2.0410    H    1
21    H8     1.9250    0.3690    1.7430    H    1
22    H9     2.6310   -0.8690   -0.3230    H    1
23    O2     2.7613   -2.6882    2.5911    O    1
24    N2     1.2754   -2.4460   -0.0241    N    1
25    H10    3.6494   -3.0423    3.1350    H    1
26    H11    0.7736   -2.9576    0.8103    H    1
27    H12    0.5196   -2.0138   -0.6964    H    1
@<TRIPOS>BOND
 1    1    2    1
 2    1   12    1
 3    1   22    1
 4    1   24    1
 5    2    3    1
 6    2   20    1
 7    2   21    1
 8    3    4    1
 9    3    7    2
10    4    5    2
11    4   11    1
12    5    6    1
13    5    8    1
14    6    7    1
15    6   15    1
16    7   14    1
17    8    9    2
18    8   19    1
19    9   10    1
20    9   16    1
21   10   11    1
22   10   17    1
23   11   18    1
24   12   13    2
25   12   23    1
26   23   25    1
27   24   26    1
28   24   27    1
@<TRIPOS>SUBSTRUCTURE
 1   TRYPTOPHAN1   1
