# Name: tyrosine

@<TRIPOS>MOLECULE
tyrosine
24 24 1 0 0
SMALL
NO_CHARGE

@<TRIPOS>ATOM
 1    C1     2.3360    0.7010    0.8500    C    1
 2    C2     1.6910   -0.3060   -0.1010    C    1
 3    C3     0.1920   -0.2760    0.0740    C    1
 4    C4    -0.5860    0.5960   -0.6970    C    1
 5    C5    -1.9760    0.6230   -0.5340    C    1
 6    C6    -2.5890   -0.2210    0.4000    C    1
 7    C7    -1.8110   -1.0930    1.1710    C    1
 8    C8    -0.4200   -1.1200    1.0080    C    1
 9    O1    -3.9490   -0.1940    0.5590    O    1
10    C9     3.8350    0.6720    0.6750    C    1
11    O2     4.5540    0.3850    1.6180    O    1
12    H1    -0.1130    1.2470   -1.4180    H    1
13    H2    -2.5760    1.2960   -1.1290    H    1
14    H3    -2.2830   -1.7440    1.8910    H    1
15    H4     0.1800   -1.7930    1.6030    H    1
16    H5     1.9420   -0.0470   -1.1280    H    1
17    H6     2.0630   -1.3040    0.1220    H    1
18    H7    -4.2160   -0.8320    1.2380    H    1
19    H8     2.0850    0.4420    1.8770    H    1
20    O3     4.4123    0.9792   -0.5967    O    1
21    N1     1.8338    2.0494    0.5493    N    1
22    H9     5.5079    0.9064   -0.5298    H    1
23    H10    2.0857    2.3120   -0.4888    H    1
24    H11    0.7415    2.0716    0.6778    H    1
@<TRIPOS>BOND
 1    1    2    1
 2    1   10    1
 3    1   19    1
 4    1   21    1
 5    2    3    1
 6    2   16    1
 7    2   17    1
 8    3    4    1
 9    3    8    2
10    4    5    2
11    4   12    1
12    5    6    1
13    5   13    1
14    6    7    2
15    6    9    1
16    7    8    1
17    7   14    1
18    8   15    1
19    9   18    1
20   10   11    2
21   10   20    1
22   20   22    1
23   21   23    1
24   21   24    1
@<TRIPOS>SUBSTRUCTURE
 1   TYROSINE1   1
