# Name: valine

@<TRIPOS>MOLECULE
valine
19 18 1 0 0
SMALL
NO_CHARGE

@<TRIPOS>ATOM
 1    C1     0.6390    0.3890    0.0980    C    1
 2    C2    -0.6930   -0.3240   -0.1350    C    1
 3    C3    -1.8340    0.6850   -0.0390    C    1
 4    C4    -0.8810   -1.4070    0.9230    C    1
 5    N1     0.8230    1.4510   -0.9380    N    1
 6    C5     1.7670   -0.6090    0.0030    C    1
 7    O1     2.5030   -0.7910    0.9600    O    1
 8    H1     0.6390    0.8440    1.0870    H    1
 9    H2    -0.6930   -0.7780   -1.1230    H    1
10    H3     0.0500    2.1350   -0.8730    H    1
11    H4     0.8230    1.0180   -1.8790    H    1
12    H5    -2.7820    0.1780   -0.2040    H    1
13    H6    -1.6990    1.4580   -0.7930    H    1
14    H7    -1.8340    1.1400    0.9500    H    1
15    H8    -1.8290   -1.9140    0.7580    H    1
16    H9    -0.0680   -2.1260    0.8550    H    1
17    H10   -0.8810   -0.9520    1.9120    H    1
18    O2     1.9742   -1.3411   -1.2078    O    1
19    H11    2.8367   -2.0131   -1.0875    H    1
@<TRIPOS>BOND
 1    1    2    1
 2    1    5    1
 3    1    6    1
 4    1    8    1
 5    2    3    1
 6    2    4    1
 7    2    9    1
 8    3   12    1
 9    3   13    1
10    3   14    1
11    4   15    1
12    4   16    1
13    4   17    1
14    5   10    1
15    5   11    1
16    6    7    2
17    6   18    1
18   18   19    1
@<TRIPOS>SUBSTRUCTURE
 1   VALINE1   1