# Name: acetazolamide

@<TRIPOS>MOLECULE
acetazolamide
19 19 1 0  0
SMALL
NO_CHARGE

@<TRIPOS>ATOM
  1   C1    -0.2768    0.1963   -0.5576    C     1
  2   N1     0.4248    0.1621   -1.6308    N     1
  3   N2     1.6053    0.6164   -1.4909    N     1
  4   C2     1.8462    1.0155   -0.2974    C     1
  5   S1     0.5514    0.8479    0.8064    S     1
  6   N3    -1.6254   -0.2922   -0.6025    N     1
  7   H1    -1.9988   -0.6511   -1.4664    H     1
  8   C3    -2.3884   -0.2698    0.5105    C     1
  9   O1    -2.0473    0.1401    1.6156    O     1
 10   C4    -3.8026   -0.8138    0.3424    C     1
 11   S2     3.3993    1.6872    0.1674    S     1
 12   O2     4.0496    0.8107    1.1187    O     1
 13   O3     3.2458    3.0825    0.5218    O     1
 14   N4     4.4094    1.7140   -1.0901    N     1
 15   H2     5.0839    0.9715   -1.1847    H     1
 16   H3     4.5159    2.5711   -1.6090    H     1
 17   H4    -4.5185   -0.0387    0.6162    H     1
 18   H5    -3.9869   -1.1219   -0.6871    H     1
 19   H6    -3.9360   -1.6718    1.0014    H     1
@<TRIPOS>BOND
 1    1   2   2
 2    1   5   1
 3    1   6   1
 4    2   3   1
 5    3   4   2
 6    4   5   1
 7    4  11   1
 8    6   8   1
 9    6   7   1
10    8   9   2
11    8  10   1
12   10  17   1
13   10  18   1
14   10  19   1
15   11  12   2
16   11  13   2
17   11  14   1
18   14  15   1
19   14  16   1
@<TRIPOS>SUBSTRUCTURE
1   ACETAZOLAMIDE1   1
