# Name: ampicillin

@<TRIPOS>MOLECULE
ampicillin
43 45 1 0  0
SMALL
NO_CHARGE

@<TRIPOS>ATOM
 1   C1     2.299     0.576    -4.598    C     1
 2   C2     0.071     0.546    -3.72     C     1
 3   C3     1.611     0.11      2.614    C     1
 4   N1    -0.794    -0.023    -0.637    N     1
 5   C4    -0.176     0.482     4.332    C     1
 6   N2    -0.701    -0.798     2.345    N     1
 7   C5    -0.982     1.131    -2.816    C     1
 8   C6     2.226    -0.812     3.668    C     1
 9   C7    -1.426     0.089    -1.822    C     1
10   C8     1.331     1.112    -3.769    C     1
11   C9     2.006    -0.526    -5.378    C     1
12   C10    0.746    -1.093    -5.329    C     1
13   C11   -0.219    -0.559    -4.496    C     1
14   C12    0.092     0.323     2.858    C     1
15   C13   -0.098    -1.556     1.222    C     1
16   C14   -1.226    -1.036     0.328    C     1
17   C15   -1.828    -0.459     1.592    C     1
18   C16    2.36      1.442     2.535    C     1
19   N3    -2.133     1.562    -3.621    N     1
20   O1    -0.491    -0.477     4.996    O     1
21   O2    -0.067     1.689     4.908    O     1
22   O3    -2.352    -0.647    -2.088    O     1
23   O4    -2.884     0.075     1.855    O     1
24   S1     1.514    -0.713     0.962    S     1
25   H1     3.283     1.019    -4.636    H     1
26   H2    -0.054     0.565    -0.424    H     1
27   H3    -0.57      1.988    -2.284    H     1
28   H4     3.27     -1.004     3.418    H     1
29   H5     2.169    -0.336     4.646    H     1
30   H6     1.679    -1.754     3.69     H     1
31   H7     1.56      1.974    -3.159    H     1
32   H8     2.761    -0.945    -6.026    H     1
33   H9     0.517    -1.954    -5.939    H     1
34   H10   -1.203    -1.002    -4.458    H     1
35   H11   -0.207     1.235     2.342    H     1
36   H12   -0.039    -2.638     1.337    H     1
37   H13   -1.826    -1.826    -0.122    H     1
38   H14    3.404     1.257     2.281    H     1
39   H15    1.906     2.07      1.769    H     1
40   H16    2.305     1.948     3.499    H     1
41   H17   -2.48      0.74     -4.093    H     1
42   H18   -2.85      1.848    -2.971    H     1
43   H19   -0.239     1.791     5.854    H     1
@<TRIPOS>BOND
 1    1   10    2
 2    1   11    1
 3    1   25    1
 4    2    7    1
 5    2   10    1
 6    2   13    2
 7    3    8    1
 8    3   14    1
 9    3   18    1
10    3   24    1
11    4    9    1
12    4   16    1
13    4   26    1
14    5   14    1
15    5   20    2
16    5   21    1
17    6   14    1
18    6   15    1
19    6   17    1
20    7    9    1
21    7   19    1
22    7   27    1
23    8   28    1
24    8   29    1
25    8   30    1
26    9   22    2
27   10   31    1
28   11   12    2
29   11   32    1
30   12   13    1
31   12   33    1
32   13   34    1
33   14   35    1
34   15   16    1
35   15   24    1
36   15   36    1
37   16   17    1
38   16   37    1
39   17   23    2
40   18   38    1
41   18   39    1
42   18   40    1
43   19   41    1
44   19   42    1
45   21   43    1
@<TRIPOS>SUBSTRUCTURE
1   AMPICILLIN1   1
