# Name: caffeine

@<TRIPOS>MOLECULE
caffeine
24 25 1 0 0
SMALL
NO_CHARGE

@<TRIPOS>ATOM
 1   N1    2.1170   1.3310   0.2790      N     1
 2   C1    2.7680   0.0670   0.4080      C     1
 3   C2    0.7860   0.9350   0.0540      C     1
 4   C3    0.7720  -0.3760   0.0850      C     1
 5   C4    2.7320   2.6420   0.3230      C     1
 6   N2    1.9150  -0.8880   0.2930      N     1
 7   N3   -0.3890  -1.1620  -0.0960      N     1
 8   N4   -1.5470   0.9170  -0.3560      N     1
 9   C5   -0.3110  -2.6220  -0.0360      C     1
10   C6   -2.7770   1.6810  -0.5940      C     1
11   C7   -0.3520   1.6100  -0.1660      C     1
12   C8   -1.6080  -0.4910  -0.3250      C     1
13   O1   -0.3730   2.8210  -0.2010      O     1
14   O2   -2.7390  -1.1500  -0.5010      O     1
15   H1   -3.0470   2.2960   0.2940      H     1
16   H2   -3.6550   1.0370  -0.8170      H     1
17   H3   -2.6604   2.3740  -1.4580      H     1
18   H4    0.4330  -3.0190  -0.7630      H     1
19   H5   -1.2800  -3.1160  -0.2680      H     1
20   H6   -0.0060  -2.9650   0.9780      H     1
21   H7    2.0240   3.4180   0.6870      H     1
22   H8    3.0870   2.9520  -0.6830      H     1
23   H9    3.6080   2.6530   1.0070      H     1
24   H10   3.8490  -0.0460   0.5830      H     1
@<TRIPOS>BOND
 1   1    2     1
 2   1    3     1
 3   1    5     1
 4   2    6     2
 5   2   24     1
 6   3    4     2
 7   3   11     1
 8   4    6     1
 9   4    7     1
10   5   21     1
11   5   22     1
12   5   23     1
13   7    9     1
14   7   12     1
15   8   10     1
16   8   11     1
17   8   12     1
18   9   18     1
19   9   19     1
20   9   20     1
21  10   15     1 
22  10   16     1
23  10   17     1
24  11   13     2
25  12   14     2
@<TRIPOS>SUBSTRUCTURE
 1   CAFFEINE1  1