# Name: cephalosporin C

@<TRIPOS>MOLECULE
cephalosporin C
50 51 1 0 0
SMALL
NO_CHARGE

@<TRIPOS>ATOM
 1   S1   -9.0560    -1.9240    -3.4440     S     1
 2   C1   -9.6700    -0.2060    -3.3950     C     1
 3   C2   -8.5970     0.8410    -3.1070     C     1
 4   C3   -9.1910     2.1380    -2.6100     C     1
 5   C4   -7.2720     0.6150    -3.2690     C     1
 6   C5   -6.2660     1.5920    -2.8260     C     1
 7   O1   -6.0040     2.4500    -3.8300     O     1
 8   O2   -5.7640     1.6030    -1.7200     O     1
 9   N1   -6.8110    -0.5500    -3.7930     N     1
10   C6   -7.6470    -1.5060    -4.4960     C     1
11   C7   -6.4360    -2.4550    -4.4430     C     1
12   C8   -5.6510    -1.2350    -3.8950     C     1
13   O3   -4.5040    -0.9970    -3.5980     O     1
14   N2   -6.4790    -3.5880    -3.5020     N     1
15   C9   -5.3520    -4.3250    -3.1730     C     1
16   O4   -4.2220    -4.1240    -3.6140     O     1
17   C10  -5.6360    -5.4390    -2.1840     C     1
18   C11  -4.3860    -6.2440    -1.8290     C     1
19   C12  -4.6710    -7.3250    -0.7750     C     1
20   C13  -3.4680    -8.2060    -0.4170     C     1
21   N3   -2.3640    -7.3500     0.1050     N     1
22   C14  -3.8090    -9.2910     0.5820     C     1
23   O5   -3.3260    -9.3890     1.7020     O     1
24   O6   -4.7310   -10.1620     0.0970     O     1
25   O7  -10.0590     2.6620    -3.5930     O     1
26   C15 -10.6780     3.8460    -3.2830     C     1
27   O8  -10.5410     4.4730    -2.2420     O     1
28   C16 -11.5630     4.2800    -4.4130     C     1
29   H1  -10.4340    -0.1770    -2.6110     H     1
30   H2  -10.1590     0.0240    -4.3480     H     1
31   H3   -8.3960     2.8480    -2.4060     H     1
32   H4   -9.7530     1.9420    -1.7020     H     1
33   H5   -5.3350     3.1190    -3.5710     H     1
34   H6   -7.9050    -1.1800    -5.5110     H     1
35   H7   -6.0870    -2.7890    -5.4220     H     1
36   H8   -7.3640    -3.8470    -3.0750     H     1
37   H9   -6.0530    -4.9900    -1.2740     H     1
38   H10  -6.4110    -6.0910    -2.6020     H     1
39   H11  -3.9650    -6.7030    -2.7310     H     1
40   H12  -3.6350    -5.5450    -1.4440     H     1
41   H13  -5.0430    -6.8420     0.1370     H     1
42   H14  -5.4830    -7.9690    -1.1340     H     1
43   H15  -3.0590    -8.6790    -1.3160     H     1
44   H16  -1.6980    -7.1300    -0.6400     H     1
45   H17  -1.8620    -7.8310     0.8550     H     1
46   H18  -2.7350    -6.4720     0.4760     H     1
47   H19  -4.9880   -10.8830     0.7110     H     1
48   H20 -12.3390     3.5300    -4.5850     H     1
49   H21 -10.9650     4.4290    -5.3160     H     1
50   H22 -12.0440     5.2270    -4.1540     H     1
@<TRIPOS>BOND
 1   1    2     1
 2   1   10     1
 3   2    3     1
 4   2   29     1
 5   2   30     1
 6   3    4     1
 7   3    5     2
 8   4   25     1
 9   4   31     1
10   4   32     1
11   5    6     1
12   5    9     1
13   6    7     1
14   6    8     2
15   7   33     1
16   9   10     1
17   9   12     1
18   10  11     1
19   10  34     1
20   11  12     1
21   11  14     1
22   11  35     1
23   12  13     2
24   14  15     1
25   14  36     1
26   15  16     2
27   15  17     1
28   17  18     1
29   17  37     1
30   17  38     1
31   18  19     1
32   18  39     1
33   18  40     1
34   19  20     1
35   19  41     1
36   19  42     1
37   20  21     1
38   20  22     1
39   20  43     1
40   21  44     1
41   21  45     1
42   21  46     1
43   22  23     2
44   22  24     1
45   24  47     1
46   25  26     1
47   26  27     2
48   26  28     1
49   28  48     1
50   28  49     1
51   28  50     1
@<TRIPOS>SUBSTRUCTURE
 1   CEPHALOSPORIN_C1  1