# Name: chloramphenicol

@<TRIPOS>MOLECULE
chloramphenicol
32 32 1 0  0
SMALL
NO_CHARGE

@<TRIPOS>ATOM
 1   C1     1.624    -0.247     2.332    C     1
 2   Cl1    2.877     0.814     3.075    Cl    1
 3   Cl2    1.081    -1.471     3.54     Cl    1
 4   C2     0.447     0.589     1.901    C     1
 5   O1     0.458     1.788     2.08     O     1
 6   N1    -0.617     0.0050    1.316    N     1
 7   C3    -1.76      0.818     0.897    C     1
 8   C4    -2.766     0.914     2.046    C     1
 9   O2    -3.217    -0.396     2.395    O     1
10   C5    -2.431     0.17     -0.314    C     1
11   O3    -2.881    -1.14      0.034    O     1
12   C6    -1.44      0.076    -1.446    C     1
13   C7    -0.645    -1.051    -1.572    C     1
14   C8     0.263    -1.147    -2.602    C     1
15   C9     0.382    -0.096    -3.527    C     1
16   N2     1.267    -0.18     -4.537    N     1
17   O4     1.366     0.732    -5.336    O     1
18   O5     1.968    -1.169    -4.651    O     1
19   C10   -0.429     1.042    -3.39     C     1
20   C11   -1.335     1.115    -2.356    C     1
21   H1     2.046    -0.755     1.465    H     1
22   H2    -0.625    -0.954     1.173    H     1
23   H3    -1.417     1.818     0.631    H     1
24   H4    -3.618     1.519     1.734    H     1
25   H5    -2.289     1.376     2.91     H     1
26   H6    -3.847    -0.291     3.121    H     1
27   H7    -3.282     0.775    -0.626    H     1
28   H8    -2.099    -1.642     0.303    H     1
29   H9    -0.737    -1.857    -0.859    H     1
30   H10    0.882    -2.027    -2.698    H     1
31   H11   -0.345     1.855    -4.096    H     1
32   H12   -1.959     1.99     -2.249    H     1
@<TRIPOS>BOND
 1    1    2    1
 2    1    3    1
 3    1    4    1
 4    1   21    1
 5    4    5    2
 6    4    6    1
 7    6    7    1
 8    6   22    1
 9    7    8    1
10    7   10    1
11    7   23    1
12    8    9    1
13    8   24    1
14    8   25    1
15    9   26    1
16   10   11    1
17   10   12    1
18   10   27    1
19   11   28    1
20   12   13    2
21   12   20    1
22   13   14    1
23   13   29    1
24   14   15    2
25   14   30    1
26   15   16    1
27   15   19    1
28   16   17    1
29   16   18    2
30   19   20    2
31   19   31    1
32   20   32    1
@<TRIPOS>SUBSTRUCTURE
1   CHLORAMPHENICOL1   1
