# Name: cinnamide

@<TRIPOS>MOLECULE
cinnamide
20 20 1 0 0
SMALL
NO_CHARGE

@<TRIPOS>ATOM
 1   O1     7.303    4.043    7.595      O     1
 2   N1     6.993    6.229    7.996      N     1
 3   C1     5.804    4.452    3.603      C     1 
 4   C2     4.855    5.386    3.218      C     1
 5   C3     4.328    5.377    1.944      C     1
 6   C4     4.756    4.437    1.030      C     1
 7   C5     5.678    3.511    1.395      C     1
 8   C6     6.200    3.499    2.680      C     1
 9   C7     6.378    4.413    4.948      C     1
10   C8     6.280    5.343    5.894      C     1
11   C9     6.907    5.155    7.227      C     1
12   H1     4.553    6.091    3.804      H     1
13   H2     3.754    6.102    1.632      H     1
14   H3     4.330    4.479    0.090      H     1
15   H4     5.991    2.916    0.777      H     1
16   H5     6.982    2.845    2.965      H     1
17   H6     6.902    3.621    5.189      H     1
18   H7     5.783    6.183    5.698      H     1
19   H8     6.886    7.070    7.667      H     1
20   H9     7.429    6.188    8.825      H     1
@<TRIPOS>BOND
 1   1   11     2
 2   2   11     1
 3   2   19     1
 4   2   20     1
 5   3    4     1
 6   3    8     2
 7   3    9     1
 8   4    5     2
 9   4   12     1
10   5    6     1
11   5   13     1
12   6    7     2
13   6   14     1
14   7    8     1
15   7   15     1
16   8   16     1
17   9   10     2
18   9   17     1
19  10   11     1
20  10   18     1
@<TRIPOS>SUBSTRUCTURE
 1   CINNAMIDE1  1