# Name: epinephrine

@<TRIPOS>MOLECULE
epinephrine
26 26 1 0 0
SMALL
NO_CHARGE

@<TRIPOS>ATOM
 1   C1   -0.2040    0.4810    0.0650    C     1
 2   C2    0.8800    0.0570   -0.6790    C     1
 3   C3    0.7180   -0.2650   -2.0170    C     1
 4   C4   -0.5340   -0.1520   -2.6100    C     1
 5   C5   -1.6160    0.2780   -1.8590    C     1
 6   C6   -0.0270    0.8270    1.5210    C     1
 7   C7   -1.4490    0.5940   -0.5240    C     1
 8   O1    1.7840   -0.6870   -2.7500    O     1
 9   O2   -0.6970   -0.4630   -3.9240    O     1
10   O3    1.3000    1.3100    1.7380    O     1
11   C8   -0.2610   -0.4200    2.3740    C     1
12   N1   -0.0890   -0.0830    3.7930    N     1
13   C9   -0.3260   -1.3180    4.5520    C     1
14   H1    1.8520   -0.0280   -0.2160    H     1
15   H2   -2.5910    0.3660   -2.3170    H     1
16   H3   -0.7440    1.5980    1.8010    H     1
17   H4   -2.2930    0.9300    0.0600    H     1
18   H5    2.1910    0.1020   -3.1310    H     1
19   H6   -0.5420    0.3490   -4.4250    H     1
20   H7    1.9020    0.6000    1.4790    H     1
21   H8    0.4560   -1.1910    2.0940    H     1
22   H9   -1.2730   -0.7890    2.2080    H     1
23   H10  -0.8350    0.5520    4.0330    H     1
24   H11  -0.2090   -1.1180    5.6170    H     1
25   H12  -1.3370   -1.6750    4.3590    H     1
26   H13   0.3920   -2.0780    4.2440    H     1  
@<TRIPOS>BOND
 1   1    2     2
 2   1    6     1
 3   1    7     1
 4   2    3     1
 5   2   14     1
 6   3    4     2
 7   3    8     1
 8   4    5     1
 9   4    9     1
10   5    7     2
11   5   15     1
12   6   10     2
13   6   11     1
14   6   16     1
15   7   17     1
16   8   18     1 
17   9   19     1
18  10   20     1
19  11   12     1
20  11   21     1
21  11   22     1
22  12   13     1
23  12   23     1
24  13   24     1
25  13   25     1
26  13   26     1
@<TRIPOS>SUBSTRUCTURE
 1   EPINEPHRINE1  1