# Name: erythromycinA

@<TRIPOS>MOLECULE
erythromycinA
118 120 1 0  0
SMALL
NO_CHARGE

@<TRIPOS>ATOM
 1   C1    -1.846     1.042     5.03     C     1
 2   C2    -0.493     0.942     4.451    C     1
 3   C3     0.433     0.217     5.365    C     1
 4   C4     1.903     0.15      4.644    C     1
 5   O1     1.859    -0.975     3.735    O     1
 6   C5     1.721    -1.796     1.402    C     1
 7   C6     0.879    -1.359     0.269    C     1
 8   C7    -0.479    -2.034     0.275    C     1
 9   C8    -1.513    -1.073    -0.268    C     1
10   C9    -2.615    -0.827     0.757    C     1
11   C10   -2.126    -0.537     2.116    C     1
12   C11   -3.196    -0.18      3.093    C     1
13   C12   -2.861     1.053     3.872    C     1
14   O2    -3.477     2.054     3.523    O     1
15   C13    1.867    -0.718     2.445    C     1
16   O3     2.07      0.406     1.964    O     1
17   O4     1.616    -1.714    -0.997    O     1
18   O5    -2.026    -1.543    -1.52     O     1
19   C14   -2.03      2.394     5.75     C     1
20   C15   -3.404    -1.401     4.094    C     1
21   C16    0.036    -1.169     5.611    C     1
22   O6    -0.03      2.297     4.26     O     1
23   O7     0.548     0.872     6.583    O     1
24   C17    2.886    -0.176     5.735    C     1
25   C18    3.109    -2.34      0.917    C     1
26   C19   -3.467    -2.174     0.751    C     1
27   O8    -3.538     0.183     0.299    O     1
28   C20   -1.868    -0.476    -2.458    C     1
29   C21   -2.152    -0.993    -3.87     C     1
30   C22   -1.945     0.148    -4.871    C     1
31   C23   -2.797     1.345    -4.432    C     1
32   C24   -2.465     1.685    -2.977    C     1
33   O9    -2.776     0.575    -2.138    O     1
34   N1    -2.36     -0.285    -6.212    N     1
35   C25   -3.286     2.899    -2.54     C     1
36   O10   -1.258    -2.065    -4.176    O     1
37   C26   -3.824    -0.402    -6.183    C     1
38   C27    2.311    -0.531    -1.419    C     1
39   C28    3.297    -0.912    -2.523    C     1
40   C29    4.061     0.323    -2.992    C     1
41   C30    3.117     1.485    -3.269    C     1
42   C31    1.98      1.62     -2.274    C     1
43   O11    1.367     0.4      -1.92     O     1
44   O12    4.743    -0.0090   -4.218    O     1
45   O13    2.572     1.339    -4.591    O     1
46   C32    5.541     1.123    -4.568    C     1
47   C33   -2.042     0.816    -7.13     C     1
48   C34    2.411     2.41     -1.038    C     1
49   C35    4.297    -0.241     5.147    C     1
50   C36   -0.38     -3.239    -0.717    C     1
51   C37    5.122     0.712    -1.959    C     1
52   H1    -2.014     0.258     5.662    H     1
53   H2    -0.51      0.438     3.468    H     1
54   H3     2.047     1.031     4.163    H     1
55   H4     1.246    -2.631     1.913    H     1
56   H5     0.798    -0.281     0.373    H     1
57   H6    -0.648    -2.343     1.261    H     1
58   H7    -1.029    -0.036    -0.439    H     1
59   H8    -1.486    -1.367     2.513    H     1
60   H9    -1.447     0.316     2.076    H     1
61   H10   -4.135    -0.053     2.564    H     1
62   H11   -3.053     2.473     6.118    H     1
63   H12   -1.336     2.456     6.589    H     1
64   H13   -1.83      3.207     5.053    H     1
65   H14   -4.184    -1.153     4.814    H     1
66   H15   -3.698    -2.287     3.531    H     1
67   H16   -2.472    -1.6       4.623    H     1
68   H17    0.754    -1.639     6.284    H     1
69   H18   -0.954    -1.188     6.066    H     1
70   H19    0.013    -1.714     4.667    H     1
71   H20   -0.655     2.724     3.658    H     1
72   H21    1.159     0.352     7.123    H     1
73   H22    2.631    -1.14      6.176    H     1
74   H23    2.847     0.595     6.503    H     1
75   H24    3.677    -2.701     1.775    H     1
76   H25    2.953    -3.158     0.214    H     1
77   H26    3.662    -1.539     0.426    H     1
78   H27   -4.287    -2.089     1.463    H     1
79   H28   -3.87     -2.345    -0.247    H     1
80   H29   -2.827    -3.011     1.032    H     1
81   H30   -4.268     0.203     0.934    H     1
82   H31   -0.846    -0.1      -2.409    H     1
83   H32   -3.181    -1.348    -3.929    H     1
84   H33   -0.894     0.434    -4.889    H     1
85   H34   -3.853     1.09     -4.515    H     1
86   H35   -2.576     2.202    -5.067    H     1
87   H36   -1.403     1.917    -2.892    H     1
88   H37   -3.047     3.147    -1.506    H     1
89   H38   -3.049     3.748    -3.181    H     1
90   H39   -4.348     2.668    -2.622    H     1
91   H40   -1.422    -2.76     -3.523    H     1
92   H41   -4.171    -0.849    -7.115    H     1
93   H42   -4.122    -1.031    -5.345    H     1
94   H43   -4.266     0.587    -6.069    H     1
95   H44    2.847    -0.132    -0.561    H     1
96   H45    4.0      -1.655    -2.139    H     1
97   H46    2.75     -1.346    -3.363    H     1
98   H47    3.704     2.419    -3.262    H     1
99   H48    1.192     2.235    -2.771    H     1
100   H49    1.98      2.091    -4.733    H     1
101   H50    5.99      0.962    -5.548    H     1
102   H51    4.914     2.013    -4.598    H     1
103   H52    6.327     1.257    -3.825    H     1
104   H53   -2.321     0.535    -8.145    H     1
105   H54   -2.597     1.706    -6.834    H     1
106   H55   -0.973     1.024    -7.091    H     1
107   H56    1.573     2.488    -0.346    H     1
108   H57    3.239     1.896    -0.55     H     1
109   H58    2.729     3.409    -1.338    H     1
110   H59    5.009    -0.478     5.938    H     1
111   H60    4.336    -1.013     4.379    H     1
112   H61    4.552     0.722     4.706    H     1
113   H62    0.396    -3.924    -0.38     H     1
114   H63   -1.336    -3.761    -0.751    H     1
115   H64   -0.133    -2.87     -1.712    H     1
116   H65    5.902    -0.047    -1.935    H     1
117   H66    5.559     1.673    -2.232    H     1
118   H67    4.659     0.79     -0.975    H     1
@<TRIPOS>BOND
 1    1    2    1
 2    1   13    1
 3    1   19    1
 4    1   52    1
 5    2    3    1
 6    2   22    1
 7    2   53    1
 8    3    4    1
 9    3   21    1
10    3   23    1
11    4    5    1
12    4   24    1
13    4   54    1
14    5   15    1
15    6    7    1
16    6   15    1
17    6   25    1
18    6   55    1
19    7    8    1
20    7   17    1
21    7   56    1
22    8    9    1
23    8   50    1
24    8   57    1
25    9   10    1
26    9   18    1
27    9   58    1
28   10   11    1
29   10   26    1
30   10   27    1
31   11   12    1
32   11   59    1
33   11   60    1
34   12   13    1
35   12   20    1
36   12   61    1
37   13   14    2
38   15   16    2
39   17   38    1
40   18   28    1
41   19   62    1
42   19   63    1
43   19   64    1
44   20   65    1
45   20   66    1
46   20   67    1
47   21   68    1
48   21   69    1
49   21   70    1
50   22   71    1
51   23   72    1
52   24   49    1
53   24   73    1
54   24   74    1
55   25   75    1
56   25   76    1
57   25   77    1
58   26   78    1
59   26   79    1
60   26   80    1
61   27   81    1
62   28   29    1
63   28   33    1
64   28   82    1
65   29   30    1
66   29   36    1
67   29   83    1
68   30   31    1
69   30   34    1
70   30   84    1
71   31   32    1
72   31   85    1
73   31   86    1
74   32   33    1
75   32   35    1
76   32   87    1
77   34   37    1
78   34   47    1
79   35   88    1
80   35   89    1
81   35   90    1
82   36   91    1
83   37   92    1
84   37   93    1
85   37   94    1
86   38   39    1
87   38   43    1
88   38   95    1
89   39   40    1
90   39   96    1
91   39   97    1
92   40   41    1
93   40   44    1
94   40   51    1
95   41   42    1
96   41   45    1
97   41   98    1
98   42   43    1
99   42   48    1
100   42   99    1
101   44   46    1
102   45  100    1
103   46  101    1
104   46  102    1
105   46  103    1
106   47  104    1
107   47  105    1
108   47  106    1
109   48  107    1
110   48  108    1
111   48  109    1
112   49  110    1
113   49  111    1
114   49  112    1
115   50  113    1
116   50  114    1
117   50  115    1
118   51  116    1
119   51  117    1
120   51  118    1
@<TRIPOS>SUBSTRUCTURE
1   ERYTHROMYCINA1   1
