# Name: kanamycinA

@<TRIPOS>MOLECULE
kanamycinA
69 71 1 0  0
SMALL
NO_CHARGE

@<TRIPOS>ATOM
 1   C1    -0.861     0.389    -2.437    C     1
 2   C2    -2.09     -0.076    -3.221    C     1
 3   C3    -1.628    -0.784    -4.499    C     1
 4   C4    -0.684     0.15     -5.263    C     1
 5   C5     0.439     0.599    -4.325    C     1
 6   C6     1.407     1.505    -5.088    C     1
 7   C7     2.647    -0.896     1.14     C     1
 8   C8     1.321    -0.155     1.328    C     1
 9   C9     0.324    -0.615     0.262    C     1
10   C10    0.887    -0.309    -1.127    C     1
11   C11    2.212    -1.05     -1.315    C     1
12   C12    3.209    -0.59     -0.249    C     1
13   C13    0.67      0.81      3.305    C     1
14   C14    0.847     0.592     4.809    C     1
15   C15   -0.212    -0.397     5.3      C     1
16   C16   -1.593     0.112     4.873    C     1
17   C17   -1.587     0.366     3.364    C     1
18   C18   -2.972     0.844     2.924    C     1
19   N1     2.487     1.934    -4.19     N     1
20   N2     2.752    -0.757    -2.649    N     1
21   N3     3.604    -0.455     2.163    N     1
22   N4    -0.156    -0.5       6.764    N     1
23   O1    -0.111     1.315    -3.221    O     1
24   O2    -2.853    -0.981    -2.42     O     1
25   O3    -2.761    -1.094    -5.312    O     1
26   O4    -0.125    -0.541    -6.381    O     1
27   O5    -0.043    -0.738    -2.123    O     1
28   O6    -0.913     0.077     0.437    O     1
29   O7     0.796    -0.44      2.626    O     1
30   O8    -0.618     1.363     3.046    O     1
31   O9     2.15      0.065     5.066    O     1
32   O10   -2.585    -0.866     5.189    O     1
33   O11   -2.975     1.059     1.511    O     1
34   H1    -1.182     0.873    -1.514    H     1
35   H2    -2.704     0.784    -3.483    H     1
36   H3    -1.102    -1.703    -4.239    H     1
37   H4    -1.238     1.021    -5.613    H     1
38   H5     0.975    -0.275    -3.958    H     1
39   H6     0.871     2.381    -5.455    H     1
40   H7     1.83      0.958    -5.93     H     1
41   H8     2.48     -1.969     1.237    H     1
42   H9     1.488     0.917     1.231    H     1
43   H10    0.158    -1.687     0.359    H     1
44   H11    1.054     0.763    -1.224    H     1
45   H12    2.046    -2.123    -1.218    H     1
46   H13    4.153    -1.118    -0.383    H     1
47   H14    3.376     0.481    -0.346    H     1
48   H15    1.438     1.496     2.945    H     1
49   H16    0.729     1.542     5.331    H     1
50   H17   -0.031    -1.377     4.857    H     1
51   H18   -1.817     1.04      5.398    H     1
52   H19   -1.34     -0.558     2.842    H     1
53   H20   -3.715     0.088     3.178    H     1
54   H21   -3.213     1.776     3.434    H     1
55   H22    3.098     2.526    -4.732    H     1
56   H23    2.064     2.52     -3.486    H     1
57   H24    3.708    -1.079    -2.652    H     1
58   H25    2.248    -1.339    -3.301    H     1
59   H26    4.458    -0.967     2.001    H     1
60   H27    3.806     0.514     1.972    H     1
61   H28    0.766    -0.838     6.995    H     1
62   H29   -0.219     0.439     7.124    H     1
63   H30   -3.202    -0.471    -1.677    H     1
64   H31   -3.332    -1.673    -4.788    H     1
65   H32   -0.866    -0.812    -6.94     H     1
66   H33   -1.532    -0.291    -0.206    H     1
67   H34    2.785     0.718     4.743    H     1
68   H35   -3.435    -0.508     4.898    H     1
69   H36   -3.838     1.433     1.287    H     1
@<TRIPOS>BOND
 1    1    2    1
 2    1   23    1
 3    1   27    1
 4    1   34    1
 5    2    3    1
 6    2   24    1
 7    2   35    1
 8    3    4    1
 9    3   25    1
10    3   36    1
11    4    5    1
12    4   26    1
13    4   37    1
14    5    6    1
15    5   23    1
16    5   38    1
17    6   19    1
18    6   39    1
19    6   40    1
20    7    8    1
21    7   12    1
22    7   21    1
23    7   41    1
24    8    9    1
25    8   29    1
26    8   42    1
27    9   10    1
28    9   28    1
29    9   43    1
30   10   11    1
31   10   27    1
32   10   44    1
33   11   12    1
34   11   20    1
35   11   45    1
36   12   46    1
37   12   47    1
38   13   14    1
39   13   29    1
40   13   30    1
41   13   48    1
42   14   15    1
43   14   31    1
44   14   49    1
45   15   16    1
46   15   22    1
47   15   50    1
48   16   17    1
49   16   32    1
50   16   51    1
51   17   18    1
52   17   30    1
53   17   52    1
54   18   33    1
55   18   53    1
56   18   54    1
57   19   55    1
58   19   56    1
59   20   57    1
60   20   58    1
61   21   59    1
62   21   60    1
63   22   61    1
64   22   62    1
65   24   63    1
66   25   64    1
67   26   65    1
68   28   66    1
69   31   67    1
70   32   68    1
71   33   69    1
@<TRIPOS>SUBSTRUCTURE
1   KANAMYCINA1   1
