# Name: kanamycinC

@<TRIPOS>MOLECULE
kanamycinC
69 71 1 0  0
SMALL
NO_CHARGE

@<TRIPOS>ATOM
 1   C1     3.419     1.956    -0.972    C     1
 2   C2     4.722     1.209    -1.271    C     1
 3   C3     5.374     0.791     0.051    C     1
 4   C4     4.386    -0.062     0.85     C     1
 5   C5     5.007    -0.433     2.198    C     1
 6   C6    -1.158    -2.706    -0.564    C     1
 7   C7    -1.338    -1.241    -0.16     C     1
 8   C8    -0.226    -0.398    -0.788    C     1
 9   C9     1.133    -0.899    -0.294    C     1
10   C10    1.314    -2.364    -0.698    C     1
11   C11    0.201    -3.207    -0.071    C     1
12   C12   -3.677    -0.988     0.303    C     1
13   C13   -5.015    -0.735    -0.396    C     1
14   C14   -5.077     0.728    -0.847    C     1
15   C15   -4.877     1.635     0.371    C     1
16   C16   -3.544     1.29      1.041    C     1
17   C17   -3.364     2.15      2.293    C     1
18   N1     2.618    -2.845    -0.225    N     1
19   N2    -2.226    -3.515     0.038    N     1
20   N3    -6.388     1.0      -1.452    N     1
21   C18    2.506     1.059    -0.132    C     1
22   O1     3.184     0.681     1.067    O     1
23   O2     5.61      2.066    -1.992    O     1
24   O3     6.553     0.031    -0.218    O     1
25   O4     2.172    -0.112    -0.88     O     1
26   O5     4.134    -1.324     2.896    O     1
27   O6    -0.395     0.97     -0.41     O     1
28   O7    -2.608    -0.773    -0.621    O     1
29   O8    -3.54     -0.092     1.407    O     1
30   O9    -5.128    -1.591    -1.535    O     1
31   O10   -4.861     3.001    -0.048    O     1
32   O11   -2.079     1.898     2.864    O     1
33   N4     2.747     2.296    -2.234    N     1
34   H1    -5.096    -2.534    -1.323    H     1
35   H2    -5.832    -0.938     0.296    H     1
36   H3    -4.292     0.918    -1.578    H     1
37   H4    -3.644    -2.017     0.663    H     1
38   H5    -6.546     0.408    -2.254    H     1
39   H6    -7.128     0.895    -0.774    H     1
40   H7    -5.692     1.48      1.078    H     1
41   H8    -4.738     3.632     0.674    H     1
42   H9    -2.727     1.484     0.346    H     1
43   H10   -3.443     3.204     2.024    H     1
44   H11   -4.139     1.902     3.019    H     1
45   H12   -1.896     2.411     3.663    H     1
46   H13   -1.291    -1.155     0.925    H     1
47   H14   -0.273    -0.484    -1.873    H     1
48   H15   -1.205    -2.792    -1.65     H     1
49   H16   -1.247     1.347    -0.668    H     1
50   H17    1.18     -0.813     0.791    H     1
51   H18   -2.129    -4.487    -0.214    H     1
52   H19   -2.244    -3.401     1.04     H     1
53   H20    0.248    -3.121     1.014    H     1
54   H21    0.33     -4.25     -0.359    H     1
55   H22    1.267    -2.45     -1.784    H     1
56   H23    2.724    -3.834    -0.397    H     1
57   H24    3.371    -2.322    -0.647    H     1
58   H25    1.594     1.601     0.121    H     1
59   H26    3.641     2.869    -0.42     H     1
60   H27    4.156    -0.97      0.294    H     1
61   H28    5.968    -0.92      2.034    H     1
62   H29    5.154     0.47      2.791    H     1
63   H30    5.636     1.68      0.624    H     1
64   H31    4.465    -1.601     3.761    H     1
65   H32    7.018    -0.267     0.576    H     1
66   H33    4.506     0.323    -1.869    H     1
67   H34    6.457     1.657    -2.215    H     1
68   H35    1.883     2.788    -2.062    H     1
69   H36    3.356     2.832    -2.834    H     1
@<TRIPOS>BOND
 1    1   33    1
 2    1   59    1
 3    2   23    1
 4    2    1    1
 5    2   66    1
 6    3   24    1
 7    3    2    1
 8    3   63    1
 9    4    5    1
10    4    3    1
11    4   60    1
12    5   26    1
13    5   61    1
14    5   62    1
15    6   19    1
16    6   11    1
17    6   48    1
18    7    8    1
19    7    6    1
20    7   46    1
21    8   27    1
22    8    9    1
23    8   47    1
24    9   25    1
25    9   50    1
26   10   18    1
27   10    9    1
28   10   55    1
29   11   10    1
30   11   53    1
31   11   54    1
32   12   28    1
33   12   37    1
34   13   14    1
35   13   12    1
36   13   35    1
37   14   20    1
38   14   15    1
39   14   36    1
40   15   31    1
41   15   16    1
42   15   40    1
43   16   17    1
44   16   29    1
45   16   42    1
46   17   32    1
47   17   43    1
48   17   44    1
49   18   56    1
50   18   57    1
51   19   51    1
52   19   52    1
53   20   38    1
54   20   39    1
55   21   22    1
56   21    1    1
57   21   58    1
58   22    4    1
59   23   67    1
60   24   65    1
61   25   21    1
62   26   64    1
63   27   49    1
64   28    7    1
65   29   12    1
66   30   13    1
67   30   34    1
68   31   41    1
69   32   45    1
70   33   68    1
71   33   69    1
@<TRIPOS>SUBSTRUCTURE
1   KANAMYCINC1   1
