# Name: morphine

@<TRIPOS>MOLECULE
morphine
40 44 1 0  0
SMALL
NO_CHARGE

@<TRIPOS>ATOM
 1   C1     2.226     1.347     0.486    C     1
 2   C2     0.894     1.389    -1.697    C     1
 3   C3     1.192     0.901    -0.317    C     1
 4   C4     0.379    -0.056     0.238    C     1
 5   C5    -0.792    -0.742    -0.417    C     1
 6   C6    -1.371     0.21     -1.436    C     1
 7   C7    -0.27     -1.98     -1.152    C     1
 8   C8     0.799    -1.49     -2.14     C     1
 9   C9     1.361    -0.069    -3.928    C     1
10   C10    2.37      0.852     1.773    C     1
11   C11    1.503    -0.08      2.339    C     1
12   C12    0.451    -0.536     1.539    C     1
13   C13   -1.636    -1.073     0.806    C     1
14   C14   -2.281     0.194     1.38     C     1
15   C15   -2.533     1.265     0.421    C     1
16   C16   -2.135     1.317    -0.81     C     1
17   C17   -0.251     0.65     -2.366    C     1
18   N1     0.244    -0.527    -3.091    N     1
19   O1     1.673    -0.526     3.613    O     1
20   O2    -1.375     0.68      2.372    O     1
21   O3    -0.566    -1.398     1.768    O     1
22   H1     2.923     2.082     0.11     H     1
23   H2     0.645     2.449    -1.646    H     1
24   H3     1.788     1.272    -2.31     H     1
25   H4    -2.076    -0.363    -2.039    H     1
26   H5    -1.084    -2.463    -1.694    H     1
27   H6     0.17     -2.678    -0.441    H     1
28   H7     1.197    -2.344    -2.688    H     1
29   H8     1.608    -1.016    -1.584    H     1
30   H9     2.226     0.139    -3.297    H     1
31   H10    1.617    -0.844    -4.65     H     1
32   H11    1.07      0.838    -4.457    H     1
33   H12    3.197     1.209     2.368    H     1
34   H13   -2.346    -1.884     0.641    H     1
35   H14   -3.222    -0.056     1.87     H     1
36   H15   -3.13      2.094     0.773    H     1
37   H16   -2.366     2.192    -1.399    H     1
38   H17   -0.696     1.323    -3.099    H     1
39   H18    2.244    -1.305     3.562    H     1
40   H19   -1.803     1.437     2.795    H     1
@<TRIPOS>BOND
 1    1    3    1
 2    1   10    2
 3    1   22    1
 4    2    3    1
 5    2   17    1
 6    2   23    1
 7    2   24    1
 8    3    4    2
 9    4    5    1
10    4   12    1
11    5    6    1
12    5    7    1
13    5   13    1
14    6   16    1
15    6   17    1
16    6   25    1
17    7    8    1
18    7   26    1
19    7   27    1
20    8   18    1
21    8   28    1
22    8   29    1
23    9   18    1
24    9   30    1
25    9   31    1
26    9   32    1
27   10   11    1
28   10   33    1
29   11   12    2
30   11   19    1
31   12   21    1
32   13   14    1
33   13   21    1
34   13   34    1
35   14   15    1
36   14   20    1
37   14   35    1
38   15   16    2
39   15   36    1
40   16   37    1
41   17   18    1
42   17   38    1
43   19   39    1
44   20   40    1
@<TRIPOS>SUBSTRUCTURE
1   MORPHINE1   1