# Name: neomycin

@<TRIPOS>MOLECULE
neomycin
88 91 1 0  0
SMALL
NO_CHARGE

@<TRIPOS>ATOM
 1   C1    -3.39     -1.005     1.254    C     1
 2   O1    -3.227    -0.159     0.113    O     1
 3   C2    -2.598    -2.298     1.048    C     1
 4   N1    -1.183    -1.975     0.816    N     1
 5   C3    -3.158    -3.043    -0.167    C     1
 6   O2    -2.473    -4.287    -0.323    O     1
 7   C4    -4.651    -3.305     0.053    C     1
 8   O3    -5.201    -3.936    -1.105    O     1
 9   C5    -5.365    -1.973     0.297    C     1
10   O4    -4.774    -1.317     1.421    O     1
11   C6    -6.846    -2.231     0.577    C     1
12   C7    -3.486     4.021    -0.496    C     1
13   N2    -3.615     5.454    -0.201    N     1
14   C8    -2.244     3.466     0.205    C     1
15   C9    -2.11      1.973    -0.103    C     1
16   O5    -0.95      1.454     0.551    O     1
17   C10   -3.352     1.235     0.4      C     1
18   C11   -4.594     1.79     -0.3      C     1
19   N3    -5.787     1.082     0.183    N     1
20   C12   -4.728     3.283     0.0070   C     1
21   C13    0.241     1.525    -0.235    C     1
22   C14    1.46      1.061     0.592    C     1
23   C15    2.334     0.293    -0.424    C     1
24   C16    1.539     0.384    -1.746    C     1
25   O6     0.17      0.597    -1.339    O     1
26   C17    1.664    -0.922    -2.533    C     1
27   C18    7.235    -0.711     0.73     C     1
28   C19    6.933     0.723     1.175    C     1
29   C20    5.846     1.309     0.268    C     1
30   C21    4.608     0.411     0.324    C     1
31   O7     3.61      0.921    -0.563    O     1
32   C22    5.943    -1.531     0.767    C     1
33   O8     4.964    -0.915    -0.072    O     1
34   C23    6.224    -2.95      0.267    C     1
35   N4    -7.531    -0.952     0.811    N     1
36   O9     2.17      2.187     1.113    O     1
37   O10    6.475     0.717     2.528    O     1
38   O11    7.754    -0.699    -0.601    O     1
39   O12    1.021    -0.778    -3.801    O     1
40   O13   -1.084     4.155    -0.266    O     1
41   N5     4.984    -3.736     0.303    N     1
42   N6     6.343     1.377    -1.113    N     1
43   H1    -3.023    -0.491     2.142    H     1
44   H2    -2.688    -2.925     1.935    H     1
45   H3    -0.792    -1.479     1.603    H     1
46   H4    -0.651    -2.809     0.614    H     1
47   H5    -3.022    -2.436    -1.062    H     1
48   H6    -2.777    -4.813    -1.075    H     1
49   H7    -4.784    -3.954     0.919    H     1
50   H8    -4.792    -4.785    -1.323    H     1
51   H9    -5.266    -1.341    -0.586    H     1
52   H10   -7.296    -2.733    -0.28     H     1
53   H11   -6.945    -2.863     1.46     H     1
54   H12   -3.39      3.879    -1.572    H     1
55   H13   -4.428     5.845    -0.652    H     1
56   H14   -3.641     5.618     0.795    H     1
57   H15   -2.34      3.608     1.281    H     1
58   H16   -2.014     1.831    -1.179    H     1
59   H17   -3.448     1.377     1.477    H     1
60   H18   -4.498     1.648    -1.377    H     1
61   H19   -6.603     1.344    -0.349    H     1
62   H20   -5.647     0.083     0.162    H     1
63   H21   -4.824     3.425     1.084    H     1
64   H22   -5.613     3.679    -0.492    H     1
65   H23    0.394     2.54     -0.6      H     1
66   H24    1.144     0.403     1.402    H     1
67   H25    2.452    -0.746    -0.118    H     1
68   H26    1.893     1.224    -2.344    H     1
69   H27    2.718    -1.156    -2.685    H     1
70   H28    1.189    -1.73     -1.975    H     1
71   H29    7.968    -1.155     1.404    H     1
72   H30    7.838     1.327     1.097    H     1
73   H31    5.587     2.311     0.611    H     1
74   H32    4.216     0.394     1.341    H     1
75   H33    5.569    -1.574     1.79     H     1
76   H34    6.597    -2.907    -0.756    H     1
77   H35    6.971    -3.419     0.907    H     1
78   H36   -7.545    -0.392    -0.028    H     1
79   H37   -8.465    -1.101     1.163    H     1
80   H38    1.647     2.739     1.711    H     1
81   H39    7.112     0.352     3.158    H     1
82   H40    8.572    -0.192    -0.7      H     1
83   H41    1.061    -1.569    -4.355    H     1
84   H42   -1.101     5.108    -0.104    H     1
85   H43    5.143    -4.678    -0.023    H     1
86   H44    4.583    -3.737     1.229    H     1
87   H45    5.643     1.76     -1.73     H     1
88   H46    7.2       1.907    -1.163    H     1
@<TRIPOS>BOND
 1    1   10    1
 2    1    2    1
 3    1    3    1
 4    1   43    1
 5    2   17    1
 6    3    4    1
 7    3    5    1
 8    3   44    1
 9    4   45    1
10    4   46    1
11    5    7    1
12    5    6    1
13    5   47    1
14    6   48    1
15    7    9    1
16    7    8    1
17    7   49    1
18    8   50    1
19    9   10    1
20    9   11    1
21    9   51    1
22   11   35    1
23   11   52    1
24   11   53    1
25   12   13    1
26   12   14    1
27   12   20    1
28   12   54    1
29   13   55    1
30   13   56    1
31   14   40    1
32   14   15    1
33   14   57    1
34   15   16    1
35   15   17    1
36   15   58    1
37   16   21    1
38   17   18    1
39   17   59    1
40   18   20    1
41   18   19    1
42   18   60    1
43   19   61    1
44   19   62    1
45   20   63    1
46   20   64    1
47   21   22    1
48   21   25    1
49   21   65    1
50   22   36    1
51   22   23    1
52   22   66    1
53   23   31    1
54   23   24    1
55   23   67    1
56   24   25    1
57   24   26    1
58   24   68    1
59   26   39    1
60   26   69    1
61   26   70    1
62   27   28    1
63   27   32    1
64   27   38    1
65   27   71    1
66   28   29    1
67   28   37    1
68   28   72    1
69   29   42    1
70   29   30    1
71   29   73    1
72   30   33    1
73   30   31    1
74   30   74    1
75   32   33    1
76   32   34    1
77   32   75    1
78   34   41    1
79   34   76    1
80   34   77    1
81   35   78    1
82   35   79    1
83   36   80    1
84   37   81    1
85   38   82    1
86   39   83    1
87   40   84    1
88   41   85    1
89   41   86    1
90   42   87    1
91   42   88    1
@<TRIPOS>SUBSTRUCTURE
1   NEOMYCIN1   1
