# Name: penicillin G

@<TRIPOS>MOLECULE
penicillin G
41 43 1 0 0
SMALL
NO_CHARGE

@<TRIPOS>ATOM
 1   O1    0.9770    -0.3980    -2.6110     O     1
 2   C1    1.1450    -0.7530    -1.4630     C     1
 3   N1    2.2690    -0.8790    -0.6430     N     1
 4   C2    2.9340     0.3720    -0.2640     C     1
 5   C3    4.2040     0.5150    -1.0640     C     1
 6   O2    4.6820     1.7360    -1.3510     O     1
 7   O3    4.7910    -0.4680    -1.4470     O     1
 8   C4    3.2550     0.4140     1.2550     C     1
 9   C5    4.5290    -0.3670     1.5830     C     1
10   C6    3.3350     1.8510     1.7730     C     1
11   S1    1.7460    -0.4510     1.8810     S     1
12   C7    1.4930    -1.5480     0.4280     C     1
13   C8    0.2230    -1.2470    -0.3690     C     1
14   N2   -0.6100    -0.1980     0.2220     N     1
15   C9   -1.9460    -0.2190     0.0470     C     1
16   O4   -2.4580    -1.1080    -0.5990     O     1
17   C10  -2.8030     0.8590     0.6560     C     1
18   C11  -4.2490     0.6050     0.3140     C     1
19   C12  -4.7920     1.1440    -0.8360     C     1
20   C13  -6.1180     0.9110    -1.1490     C     1
21   C14  -6.9010     0.1390    -0.3110     C     1
22   C15  -6.3580    -0.3980     0.8400     C     1
23   C16  -5.0330    -0.1610     1.1550     C     1
24   H1    2.2740     1.2090    -0.4920     H     1
25   H2    5.4960     1.8290    -1.8640     H     1
26   H3    4.6760    -0.3860     2.6630     H     1
27   H4    5.3830     0.1130     1.1080     H     1
28   H5    4.4340    -1.3880     1.2120     H     1
29   H6    3.4780     1.8400     2.8540     H     1
30   H7    2.4100     2.3750     1.5340     H     1
31   H8    4.1740     2.3620     1.3000     H     1
32   H9    1.7090    -2.6020     0.6030     H     1
33   H10  -0.3440    -2.1370    -0.6420     H     1
34   H11  -0.2000     0.5120     0.7400     H     1
35   H12  -2.5010     1.8290     0.2600     H     1
36   H13  -2.6790     0.8550     1.7390     H     1
37   H14  -4.1810     1.7470    -1.4910     H     1
38   H15  -6.5430     1.3310    -2.0490     H     1
39   H16  -7.9370    -0.0430    -0.5560     H     1
40   H17  -6.9690    -1.0010     1.4950     H     1
41   H18  -4.6080    -0.5820     2.0550     H     1 
@<TRIPOS>BOND
 1   1    2     2
 2   2    3     1
 3   2   13     1
 4   3    4     1
 5   3   12     1
 6   4    5     1
 7   4    8     1
 8   4   24     1
 9   5    6     1
10   5    7     2
11   6   25     1
12   8    9     1
13   8   10     1
14   8   11     1
15   9   26     1
16   9   27     1
17   9   28     1
18   10  29     1
19   10  30     1
20   10  31     1
21   11  12     1
22   12  13     1
23   12  32     1
24   13  14     1
25   13  33     1
26   14  15     1
27   14  34     1
28   15  16     2
29   15  17     1
30   17  18     1
31   17  35     1
32   17  36     1
33   18  19     2
34   18  23     1
35   19  20     1
36   19  37     1
37   20  21     2
38   20  38     1
39   21  22     1
40   21  39     1
41   22  23     2
42   22  40     1
43   23  41     1
@<TRIPOS>SUBSTRUCTURE
 1   PENICILLIN_G1  1