# Name: penicillinV

@<TRIPOS>MOLECULE
penicillinV
42 44 1 0  0
SMALL
NO_CHARGE

@<TRIPOS>ATOM
 1   C1    -4.561     1.216     0.287    C     1
 2   C2    -5.588     2.105     0.537    C     1
 3   C3    -6.889     1.648     0.642    C     1
 4   C4    -7.166     0.302     0.491    C     1
 5   C5    -6.143    -0.591     0.236    C     1
 6   C6    -4.837    -0.135     0.13     C     1
 7   O1    -3.829    -1.011    -0.122    O     1
 8   C7    -2.622    -0.248    -0.172    C     1
 9   C8    -1.459    -1.165    -0.45     C     1
10   O2    -1.645    -2.355    -0.591    O     1
11   N1    -0.211    -0.663    -0.542    N     1
12   C9     0.919    -1.555    -0.811    C     1
13   C10    1.83     -1.767     0.38     C     1
14   O3     1.732    -2.391     1.415    O     1
15   C11    2.11     -0.857    -1.471    C     1
16   N2     2.835    -0.977    -0.183    N     1
17   S1     1.901     0.958    -1.672    S     1
18   C12    3.227     1.473    -0.49     C     1
19   C13    4.597     1.523    -1.169    C     1
20   C14    2.891     2.804     0.186    C     1
21   C15    3.125     0.285     0.506    C     1
22   C16    4.415     0.142     1.272    C     1
23   O4     4.707     0.999     2.263    O     1
24   O5     5.187    -0.745     0.994    O     1
25   H1    -3.545     1.573     0.205    H     1
26   H2    -5.375     3.157     0.654    H     1
27   H3    -7.69      2.344     0.842    H     1
28   H4    -8.183    -0.052     0.574    H     1
29   H5    -6.36     -1.642     0.118    H     1
30   H6    -2.469     0.254     0.783    H     1
31   H7    -2.695     0.496    -0.966    H     1
32   H8    -0.062     0.289    -0.429    H     1
33   H9     0.623    -2.479    -1.307    H     1
34   H10    2.549    -1.368    -2.328    H     1
35   H11    5.365     1.724    -0.422    H     1
36   H12    4.799     0.566    -1.649    H     1
37   H13    4.603     2.314    -1.918    H     1
38   H14    2.891     3.6      -0.559    H     1
39   H15    1.906     2.739     0.647    H     1
40   H16    3.637     3.022     0.95     H     1
41   H17    2.319     0.501     1.207    H     1
42   H18    5.535     0.907     2.754    H     1
@<TRIPOS>BOND
 1    1    2    2
 2    1    6    1
 3    1   25    1
 4    2    3    1
 5    2   26    1
 6    3    4    2
 7    3   27    1
 8    4    5    1
 9    4   28    1
10    5    6    2
11    5   29    1
12    6    7    1
13    7    8    1
14    8    9    1
15    8   30    1
16    8   31    1
17    9   10    2
18    9   11    1
19   11   12    1
20   11   32    1
21   12   13    1
22   12   15    1
23   12   33    1
24   13   14    2
25   13   16    1
26   15   16    1
27   15   17    1
28   15   34    1
29   16   21    1
30   17   18    1
31   18   19    1
32   18   20    1
33   18   21    1
34   19   35    1
35   19   36    1
36   19   37    1
37   20   38    1
38   20   39    1
39   20   40    1
40   21   22    1
41   21   41    1
42   22   23    1
43   22   24    2
44   23   42    1
@<TRIPOS>SUBSTRUCTURE
1   PENICILLINV1   1
