# Name: riluzole

@<TRIPOS>MOLECULE
riluzole
20 21 1 0 0
SMALL
NO_CHARGE

@<TRIPOS>ATOM
 1    C1    -1.291096058    0.723132947    0.162964804    C    1
 2    C2    -1.794986058   -0.583799053    0.085864804    C    1
 3    C3    -0.942706058   -1.661556053   -0.016945196    C    1
 4    C4     0.444783942   -1.492822353   -0.048435196    C    1
 5    C5     0.942843942   -0.188957053    0.025234804    C    1
 6    C6     0.100753942    0.897692947    0.122424804    C    1
 7    N1     0.720693942    1.995442947    0.070944804    N    1
 8    C7     1.947043942    1.690692947   -0.092495196    C    1
 9    S1     2.265683942    0.289022947   -0.095235196    S    1
10    H1    -1.957426058    1.574902947    0.218544804    H    1
11    H2    -2.757641241   -0.853930017    0.067857552    H    1
12    H3     1.107713942   -2.338019053   -0.159105196    H    1
13    O1    -1.734140116   -2.847557419   -0.126182973    O    1
14    C8    -2.087157881   -3.307912685    1.180854480    C    1
15    F1    -2.906398028   -4.535286161    1.067791175    F    1
16    F2    -2.864210444   -2.267087518    1.890263270    F    1
17    F3    -0.857344247   -3.603332831    1.949408250    F    1
18    N2     2.985795165    2.709007936   -0.304463306    N    1
19    H4     3.532571836    3.124123968    0.555020903    H    1
20    H5     3.216314423    3.055896481   -1.322564091    H    1
@<TRIPOS>BOND
 1    1    2    2
 2    1    6    1
 3    1   10    1
 4    2    3    1
 5    2   11    1
 6    3    4    2
 7    3   13    1
 8    4    5    1
 9    4   12    1
10    5    6    2
11    5    9    1
12    6    7    1
13    7    8    2
14    8    9    1
15    8   18    1
16   13   14    1
17   14   15    1
18   14   16    1
19   14   17    1
20   18   19    1
21   18   20    1
@<TRIPOS>SUBSTRUCTURE
 1   RILUZOLE1   1