# Name: streptinomycin

@<TRIPOS>MOLECULE
streptinomycin
50 52 1 0  0
SMALL
NO_CHARGE

@<TRIPOS>ATOM
 1   O1     1.913     1.64     -0.708    O     1
 2   C1     3.227     1.327    -1.171    C     1
 3   C2     3.394     1.824    -2.609    C     1
 4   C3     3.432    -0.19     -1.127    C     1
 5   C4     3.214    -0.681     0.307    C     1
 6   C5     1.818    -0.269     0.775    C     1
 7   O2     1.646    -0.646     2.143    O     1
 8   C6     1.656     1.247     0.642    C     1
 9   O3     0.829    -0.929    -0.02     O     1
10   O4     0.312     1.61      0.984    O     1
11   C7    -0.507    -0.563     0.331    C     1
12   C8    -1.513    -1.269    -0.578    C     1
13   N1    -1.355    -2.724    -0.448    N     1
14   C9    -1.826    -3.414    -1.656    C     1
15   C10   -2.931    -0.868    -0.163    C     1
16   O5    -3.159    -1.263     1.191    O     1
17   C11   -3.097     0.647    -0.285    C     1
18   N2    -4.455     1.025     0.13     N     1
19   C12   -5.406     0.871    -0.978    C     1
20   C13   -2.076     1.355     0.61     C     1
21   O6    -2.229     2.77      0.483    O     1
22   C14   -0.667     0.952     0.176    C     1
23   O7     3.33     -2.105     0.347    O     1
24   O8     4.198    -0.098     1.165    O     1
25   H1     3.964     1.812    -0.531    H     1
26   H2     3.245     2.904    -2.64     H     1
27   H3     4.397     1.585    -2.962    H     1
28   H4     2.658     1.338    -3.249    H     1
29   H5     2.715    -0.674    -1.791    H     1
30   H6     4.446    -0.431    -1.446    H     1
31   H7     0.781    -0.415     2.509    H     1
32   H8     2.357     1.75      1.309    H     1
33   H9    -0.7      -0.844     1.367    H     1
34   H10   -1.338    -0.973    -1.613    H     1
35   H11   -0.398    -2.967    -0.242    H     1
36   H12   -1.698    -4.489    -1.533    H     1
37   H13   -2.881    -3.189    -1.815    H     1
38   H14   -1.249    -3.075    -2.516    H     1
39   H15   -3.652    -1.365    -0.811    H     1
40   H16   -4.04     -1.041     1.523    H     1
41   H17   -2.94      0.947    -1.321    H     1
42   H18   -4.748     0.491     0.935    H     1
43   H19   -6.386     1.236    -0.67     H     1
44   H20   -5.059     1.444    -1.838    H     1
45   H21   -5.48     -0.182    -1.25     H     1
46   H22   -2.237     1.063     1.648    H     1
47   H23   -3.072     3.106     0.816    H     1
48   H24   -0.519     1.228    -0.868    H     1
49   H25    4.191    -2.438     0.059    H     1
50   H26    5.109    -0.316     0.924    H     1
@<TRIPOS>BOND
 1    1    8    1
 2    2    1    1
 3    2   25    1
 4    3    2    1
 5    3   26    1
 6    3   27    1
 7    3   28    1
 8    4    2    1
 9    4    5    1
10    4   29    1
11    4   30    1
12    5   23    1
13    5   24    1
14    5    6    1
15    6    8    1
16    6    7    1
17    7   31    1
18    8   10    1
19    8   32    1
20    9    6    1
21    9   11    1
22   11   22    1
23   11   33    1
24   12   11    1
25   12   15    1
26   12   34    1
27   13   12    1
28   13   35    1
29   14   13    1
30   14   36    1
31   14   37    1
32   14   38    1
33   15   17    1
34   15   16    1
35   15   39    1
36   16   40    1
37   17   20    1
38   17   18    1
39   17   41    1
40   18   42    1
41   19   18    1
42   19   43    1
43   19   44    1
44   19   45    1
45   20   21    1
46   20   46    1
47   21   47    1
48   22   10    1
49   22   20    1
50   22   48    1
51   23   49    1
52   24   50    1
@<TRIPOS>SUBSTRUCTURE
1   STREPTINOMYCIN1   1
