# Name: streptomycin

@<TRIPOS>MOLECULE
streptomycin
79 81 1 0  0
SMALL
NO_CHARGE

@<TRIPOS>ATOM
 1   C1     4.587     0.516    -0.992    C     1
 2   N1     4.893    -0.168     0.267    N     1
 3   C2     5.919    -1.082     0.32     C     1
 4   N2     6.207    -1.724     1.501    N     1
 5   N3     6.619    -1.339    -0.749    N     1
 6   C3     3.583    -0.316    -1.793    C     1
 7   O1     4.144    -1.6      -2.073    O     1
 8   C4     2.298    -0.487    -0.98     C     1
 9   N4     2.605    -1.171     0.279    N     1
10   C5     2.739    -2.539     0.303    C     1
11   N5     2.972    -3.187     1.493    N     1
12   N6     2.644    -3.223    -0.803    N     1
13   C6     1.697     0.888    -0.68     C     1
14   O2     0.498     0.727     0.08     O     1
15   C7     2.701     1.719     0.122    C     1
16   O3     3.0       1.052     1.349    O     1
17   C8     3.986     1.891    -0.692    C     1
18   O4     4.923     2.667     0.056    O     1
19   C9    -0.408     1.741    -0.36     C     1
20   C10   -1.819     1.489     0.217    C     1
21   C11   -2.356     2.905     0.526    C     1
22   O5    -3.532     3.172    -0.24     O     1
23   C12   -2.64      3.052     1.999    C     1
24   O6    -2.014     3.848     2.657    O     1
25   C13   -1.207     3.844     0.099    C     1
26   C14   -1.429     4.342    -1.331    C     1
27   O7    -0.018     3.028     0.168    O     1
28   O8    -2.646     0.839    -0.749    O     1
29   C15   -3.51     -0.041    -0.028    C     1
30   C16   -4.604    -0.561    -0.964    C     1
31   N7    -3.991    -1.318    -2.064    N     1
32   C17   -3.623    -0.339    -3.096    C     1
33   C18   -5.544    -1.477    -0.173    C     1
34   O9    -6.479    -2.089    -1.064    O     1
35   C19   -4.708    -2.56      0.518    C     1
36   O10   -4.117    -3.41     -0.468    O     1
37   C20   -3.606    -1.889     1.342    C     1
38   O11   -2.752    -1.136     0.484    O     1
39   C21   -2.786    -2.961     2.063    C     1
40   O12   -1.817    -2.333     2.904    O     1
41   H1     5.502     0.638    -1.571    H     1
42   H2     4.372     0.023     1.062    H     1
43   H3     5.686    -1.532     2.297    H     1
44   H4     6.931    -2.369     1.539    H     1
45   H5     7.343    -1.984    -0.711    H     1
46   H6     3.355     0.193    -2.729    H     1
47   H7     4.95     -1.447    -2.586    H     1
48   H8     1.583    -1.08     -1.55     H     1
49   H9     2.714    -0.659     1.095    H     1
50   H10    3.043    -2.678     2.316    H     1
51   H11    3.067    -4.152     1.51     H     1
52   H12    2.738    -4.188    -0.786    H     1
53   H13    1.469     1.397    -1.616    H     1
54   H14    2.273     2.698     0.335    H     1
55   H15    3.634     1.608     1.822    H     1
56   H16    3.757     2.4      -1.628    H     1
57   H17    4.506     3.523     0.224    H     1
58   H18   -0.444     1.773    -1.449    H     1
59   H19   -1.758     0.894     1.129    H     1
60   H20   -3.786     4.086    -0.054    H     1
61   H21   -3.402     2.447     2.465    H     1
62   H22   -1.129     4.687     0.785    H     1
63   H23   -1.519     3.488    -2.003    H     1
64   H24   -2.343     4.934    -1.372    H     1
65   H25   -0.583     4.957    -1.637    H     1
66   H26   -3.969     0.5       0.8      H     1
67   H27   -5.168     0.279    -1.369    H     1
68   H28   -4.717    -1.896    -2.458    H     1
69   H29   -2.918     0.381    -2.68     H     1
70   H30   -3.162    -0.855    -3.938    H     1
71   H31   -4.517     0.184    -3.436    H     1
72   H32   -6.081    -0.893     0.575    H     1
73   H33   -7.049    -2.655    -0.526    H     1
74   H34   -5.347    -3.152     1.174    H     1
75   H35   -3.601    -4.074     0.0090     H     1
76   H36   -4.058    -1.223     2.077    H     1
77   H37   -3.449    -3.578     2.67     H     1
78   H38   -2.279    -3.586     1.328    H     1
79   H39   -1.271    -3.039     3.277    H     1
@<TRIPOS>BOND
 1    1    2    1
 2    1    6    1
 3    1   17    1
 4    1   41    1
 5    2    3    1
 6    2   42    1
 7    3    4    1
 8    3    5    2
 9    4   43    1
10    4   44    1
11    5   45    1
12    6    7    1
13    6    8    1
14    6   46    1
15    7   47    1
16    8    9    1
17    8   13    1
18    8   48    1
19    9   10    1
20    9   49    1
21   10   11    1
22   10   12    2
23   11   50    1
24   11   51    1
25   12   52    1
26   13   14    1
27   13   15    1
28   13   53    1
29   14   19    1
30   15   16    1
31   15   17    1
32   15   54    1
33   16   55    1
34   17   18    1
35   17   56    1
36   18   57    1
37   19   20    1
38   19   27    1
39   19   58    1
40   20   21    1
41   20   28    1
42   20   59    1
43   21   22    1
44   21   23    1
45   21   25    1
46   22   60    1
47   23   24    2
48   23   61    1
49   25   26    1
50   25   27    1
51   25   62    1
52   26   63    1
53   26   64    1
54   26   65    1
55   28   29    1
56   29   30    1
57   29   38    1
58   29   66    1
59   30   31    1
60   30   33    1
61   30   67    1
62   31   32    1
63   31   68    1
64   32   69    1
65   32   70    1
66   32   71    1
67   33   34    1
68   33   35    1
69   33   72    1
70   34   73    1
71   35   36    1
72   35   37    1
73   35   74    1
74   36   75    1
75   37   38    1
76   37   39    1
77   37   76    1
78   39   40    1
79   39   77    1
80   39   78    1
81   40   79    1
@<TRIPOS>SUBSTRUCTURE
1   STREPTOMYCIN1   1
