   
       @<TRIPOS>MOLECULE
       acetic acid
       8 7 1  0       0
       SMALL
       NO_CHARGES

       @<TRIPOS>ATOM
       1	C1	2.1975 1.1689 0.9859	C.ar	1   	ACETIC ACID 0.000
       2	C2	1.1899 1.5387 2.0082	C.ar	1   	ACETIC ACID 0.000
       3	H1      2.4224 0.2086 -0.6692	H	1	ACETIC ACID 0.000
       4        H2	1.7037 2.0859 2.8326	H	1	ACETIC ACID 0.000   
       5	H3	0.4392 2.2086 1.6096	H	1	ACETIC ACID 0.000	
       6	H4	0.7054 0.6871 2.4287	H	1	ACETIC ACID 0.000	
       7	O1	1.7130 0.4397 0.0000	O	1	ACETIC ACID 0.000
       8	O2	3.3661 1.5145 1.0205	O	1	ACETIC ACID 0.000
	

       @<TRIPOS>BOND
       	1       1       2       1
       	2       2       4       1
	3	3	7	1
	4	5	2	1
	5	6	2	1
	6	7	1	1
	7	8	1	2
	


       @<TRIPOS>SUBSTRUCTURE
       1       ACETIC ACID 1       PERM    0       ****    ****    0       ROOT