   
       @<TRIPOS>MOLECULE
       acetylene
       4 3 1  0       0
       SMALL
       NO_CHARGES

       	@<TRIPOS>ATOM

	1	C1	0.3425 0.3425 0.3425	C.ar	1   	ACETYLENE 0.000
	2	H1	0.9287 0.9287 0.9287	H	1   	ACETYLENE 0.000
	3	C2	-0.3425 -0.3425 -0.3425	C.ar	1   	ACETYLENE 0.000
	4	H2	-0.9287 -0.9287 -0.9287	H	1   	ACETYLENE 0.000
	
	@<TRIPOS>BOND
       	1       1	3	3
       	2       2	1       1
	3	3	4	1
	
       @<TRIPOS>SUBSTRUCTURE
       1       ACETYLENE 1       PERM    0       ****    ****    0       ROOT