   
       @<TRIPOS>MOLECULE
       ethanol
       9 8 1  0       0
       SMALL
       NO_CHARGES

       	@<TRIPOS>ATOM
    	1	C1	0.0447 	2.0557 	1.1972	C.ar	1   	ETHANOL 0.000
       	2       C2      1.1068	1.9070 	0.1305	C.ar	1      	ETHANOL 0.000
   	3       H1     -0.2260  0.3028  1.5265  H	1      	ETHANOL 0.000
      	4       H2	0.1051 	2.7803 	1.7686  H	1	ETHANOL 0.000      
	5	H3     -0.8619 	2.1678 	0.7064	H	1	ETHANOL 0.000
	6	H4	0.9197 	1.0942 -0.5208	H	1	ETHANOL 0.000
	7	H5	1.9919	1.6999	0.5682	H	1	ETHANOL 0.000
	8	H6	1.2351 	2.6840 -0.4156	H	1	ETHANOL 0.000
	9	O1	0.0000  0.9284  2.0638	O	1	ETHANOL 0.000

       @<TRIPOS>BOND
       	1       1       9       1
       	2       1       2       1
	3	3	9	1
        4	1	4	1
	5	1	5	1
	6	2	6	1
	7	2	7	1
	8	2	8	1

       @<TRIPOS>SUBSTRUCTURE
       1       ETHANOL 1       PERM    0       ****    ****    0       ROOT