   
       @<TRIPOS>MOLECULE
       methanol
       6 5 1  0       0
       SMALL
       NO_CHARGES

       	@<TRIPOS>ATOM
    	1	C1	0.9000	2.3549	0.9355	C.ar	1   	METHANOL 0.000
	2	O1	2.1684	2.2045	1.5260	O	1	METHANOL 0.000
   	3       H1      2.4072	3.0320	2.0536  H	1      	METHANOL 0.000
      	4       H2	0.7329	1.4508	0.3520  H	1	METHANOL 0.000      
	5	H3	0.1408	2.4213	1.6688	H	1	METHANOL 0.000
	6	H4	0.8951	3.1689	0.2438	H	1	METHANOL 0.000
		
       @<TRIPOS>BOND
       	1       1       2       1
       	2       2       3       1
	3	1	4	1
	4	1	5	1
	5	1	6	1
	
       @<TRIPOS>SUBSTRUCTURE
       1       METHANOL 1       PERM    0       ****    ****    0       ROOT