# Name: alpha=tocopherol

@<TRIPOS>MOLECULE
alpha-tocopherol
81 82 1 0  0
SMALL
NO_CHARGE

@<TRIPOS>ATOM
 1   C1     1.444     0.541     6.013    C     1
 2   C2    -0.027    -0.374    -7.322    C     1
 3   C3    -0.624    -0.068    -6.109    C     1
 4   C4     0.149     0.314    -5.031    C     1
 5   C5     1.537     0.373    -5.177    C     1
 6   C6     2.13      0.065    -6.381    C     1
 7   C7     1.348    -0.308    -7.464    C     1
 8   C8    -0.882    -0.781    -8.495    C     1
 9   O1    -0.353     0.655    -3.821    O     1
10   C9    -1.613     0.035    -3.61     C     1
11   C10   -2.128    -0.169    -6.015    C     1
12   C11   -2.585     0.487    -4.708    C     1
13   C12    2.393     0.778    -4.005    C     1
14   C13    3.629     0.135    -6.523    C     1
15   O2     1.928    -0.608    -8.657    O     1
16   C14   -1.45     -1.485    -3.664    C     1
17   C15   -2.161     0.442    -2.241    C     1
18   C16   -1.188    -0.0040   -1.148    C     1
19   C17   -1.736     0.402     0.22     C     1
20   C18   -0.763    -0.044     1.313    C     1
21   C19    0.595     0.621     1.089    C     1
22   C20   -1.312     0.362     2.682    C     1
23   C21   -0.338    -0.084     3.775    C     1
24   C22   -0.887     0.322     5.144    C     1
25   C23    0.085    -0.124     6.236    C     1
26   C24   -0.462     0.282     7.605    C     1
27   C25    0.51     -0.164     8.698    C     1
28   C26   -0.037     0.242    10.067    C     1
29   C27    0.935    -0.204    11.16     C     1
30   C28    0.386     0.202    12.529    C     1
31   C29    1.097    -1.725    11.107    C     1
32   H1     1.329     1.624     6.05     H     1
33   H2     2.138     0.222     6.791    H     1
34   H3     1.835     0.251     5.037    H     1
35   H4    -1.164     0.104    -9.064    H     1
36   H5    -0.319    -1.46     -9.136    H     1
37   H6    -1.78     -1.282    -8.134    H     1
38   H7    -2.425    -1.218    -6.021    H     1
39   H8    -2.583     0.345    -6.862    H     1
40   H9    -3.597     0.163    -4.463    H     1
41   H10   -2.555     1.572    -4.807    H     1
42   H11    2.528     1.86     -4.01     H     1
43   H12    1.907     0.476    -3.078    H     1
44   H13    3.366     0.291    -4.08     H     1
45   H14    3.917     1.136    -6.844    H     1
46   H15    4.096    -0.086    -5.563    H     1
47   H16    3.958    -0.592    -7.264    H     1
48   H17    1.978     0.217    -9.158    H     1
49   H18   -1.059    -1.773    -4.64     H     1
50   H19   -0.756    -1.804    -2.886    H     1
51   H20   -2.418    -1.96     -3.506    H     1
52   H21   -3.129    -0.032    -2.081    H     1
53   H22   -2.277     1.525    -2.203    H     1
54   H23   -0.22      0.469    -1.307    H     1
55   H24   -1.072    -1.088    -1.186    H     1
56   H25   -2.705    -0.072     0.379    H     1
57   H26   -1.852     1.485     0.258    H     1
58   H27   -0.648    -1.128     1.275    H     1
59   H28    0.479     1.704     1.127    H     1
60   H29    1.288     0.302     1.868    H     1
61   H30    0.986     0.331     0.114    H     1
62   H31   -2.28     -0.112     2.841    H     1
63   H32   -1.427     1.445     2.719    H     1
64   H33    0.629     0.389     3.615    H     1
65   H34   -0.223    -1.167     3.737    H     1
66   H35   -1.855    -0.152     5.303    H     1
67   H36   -1.002     1.405     5.181    H     1
68   H37    0.201    -1.207     6.199    H     1
69   H38   -1.43     -0.191     7.765    H     1
70   H39   -0.578     1.365     7.643    H     1
71   H40    1.478     0.309     8.539    H     1
72   H41    0.626    -1.247     8.661    H     1
73   H42   -1.006    -0.231    10.227    H     1
74   H43   -0.153     1.325    10.105    H     1
75   H44    1.903     0.269    11.001    H     1
76   H45    1.08     -0.115    13.308    H     1
77   H46    0.271     1.285    12.567    H     1
78   H47   -0.581    -0.271    12.688    H     1
79   H48    0.129    -2.199    11.267    H     1
80   H49    1.488    -2.015    10.132    H     1
81   H50    1.79     -2.043    11.886    H     1
@<TRIPOS>BOND
 1    1   25    1
 2    1   32    1
 3    1   33    1
 4    1   34    1
 5    2    3    2
 6    2    7    1
 7    2    8    1
 8    3    4    1
 9    3   11    1
10    4    5    2
11    4    9    1
12    5    6    1
13    5   13    1
14    6    7    2
15    6   14    1
16    7   15    1
17    8   35    1
18    8   36    1
19    8   37    1
20    9   10    1
21   10   12    1
22   10   16    1
23   10   17    1
24   11   12    1
25   11   38    1
26   11   39    1
27   12   40    1
28   12   41    1
29   13   42    1
30   13   43    1
31   13   44    1
32   14   45    1
33   14   46    1
34   14   47    1
35   15   48    1
36   16   49    1
37   16   50    1
38   16   51    1
39   17   18    1
40   17   52    1
41   17   53    1
42   18   19    1
43   18   54    1
44   18   55    1
45   19   20    1
46   19   56    1
47   19   57    1
48   20   21    1
49   20   22    1
50   20   58    1
51   21   59    1
52   21   60    1
53   21   61    1
54   22   23    1
55   22   62    1
56   22   63    1
57   23   24    1
58   23   64    1
59   23   65    1
60   24   25    1
61   24   66    1
62   24   67    1
63   25   26    1
64   25   68    1
65   26   27    1
66   26   69    1
67   26   70    1
68   27   28    1
69   27   71    1
70   27   72    1
71   28   29    1
72   28   73    1
73   28   74    1
74   29   30    1
75   29   31    1
76   29   75    1
77   30   76    1
78   30   77    1
79   30   78    1
80   31   79    1
81   31   80    1
82   31   81    1
@<TRIPOS>SUBSTRUCTURE
1   ALPHA-TOCOPHEROL1   1
