# Name: ascorbic acid

@<TRIPOS>MOLECULE
ascorbic acid
20 20 1 0 0
SMALL
NO_CHARGE

@<TRIPOS>ATOM
 1   C1    1.1820    -1.3420     0.1320      C     1
 2   C2   -0.1820    -1.8180    -0.0550      C     1
 3   C3   -1.0390    -0.8600     0.3520      C     1
 4   C4   -0.1930     0.2970     0.8290      C     1
 5   C5   -0.4900     1.5440    -0.0060      C     1
 6   C6    0.3870     2.7010     0.4730      C     1
 7   O1    2.1860    -1.9740    -0.1390      O     1
 8   O2   -0.5350    -3.0330    -0.5610      O     1
 9   O3   -2.3880    -0.9230     0.3360      O     1
10   O4    1.1690    -0.1000     0.6520      O     1
11   O5   -0.2110     1.2730    -1.3810      O     1
12   O6    0.1100     3.8650    -0.3070      O     1
13   H1   -0.3910     0.4970     1.8820      H     1
14   H2   -1.5400     1.8140     0.1040      H     1
15   H3    0.1740     2.9070     1.5220      H     1
16   H4    1.4370     2.4300     0.3620      H     1
17   H5    0.2860    -3.5010    -0.7630      H     1
18   H6   -2.6230    -1.7890    -0.0230      H     1
19   H7    0.7250     1.0380    -1.4350      H     1
20   H8    0.6830     4.5690     0.0270      H     1
@<TRIPOS>BOND
 1   1    2     1
 2   1    7     2
 3   1   10     1
 4   2    3     2
 5   2    8     1
 6   3    4     1
 7   3    9     1
 8   4    5     1
 9   4   10     1
10   4   13     1
11   5    6     1
12   5   11     1
13   5   14     1
14   6   12     1
15   6   15     1
16   6   16     1 
17   8   17     1
18   9   18     1
19  11   19     1
20  12   20     1
@<TRIPOS>SUBSTRUCTURE
 1   ASCORBIC ACID1  1
