# Name: biotin

@<TRIPOS>MOLECULE
biotin
32 33 1 0 0
SMALL
NO_CHARGE

@<TRIPOS>ATOM
 1   C1    5.072      0.280    -0.183     C.2   1      
 2   C2    3.880     -0.632    -0.049     C.3   1  
 3   C3    2.639      0.194     0.290     C.3   1  
 4   C4    1.429     -0.732     0.426     C.3   1  
 5   C5    0.188      0.095     0.766     C.3   1  
 6   C6   -1.020     -0.831     0.903     C.3   1  
 7   C7   -3.237     -1.808    -0.443     C.3   1  
 8   C8   -3.535     -0.564     0.420     C.3   1  
 9   C9   -3.099      1.574    -0.273     C.2   1  
10   C10  -2.310     -0.024     1.165     C.3   1  
11   O1    4.941      1.470    -0.024     O.2   1  
12   O2    6.277     -0.229    -0.480     O.3   1 
13   O3   -3.199      2.627    -0.873     O.2   1 
14   N1   -3.938      0.545    -0.458     N.3   1 
15   N2   -2.141      1.337     0.633     N.3   1 
16   S1   -1.418     -1.643    -0.705     S.3   1
17   H1    7.042      0.356    -0.566     H     1 
18   H2    3.719     -1.160    -0.989     H     1 
19   H3    4.064     -1.355     0.746     H     1 
20   H4    2.800      0.722     1.230     H     1 
21   H5    2.455      0.917    -0.505     H     1 
22   H6    1.268     -1.260    -0.513     H     1 
23   H7    1.613     -1.454     1.222     H     1 
24   H8    0.350      0.623     1.706     H     1 
25   H9    0.005      0.817    -0.029     H     1 
26   H10  -0.856     -1.572     1.685     H     1 
27   H11  -3.775     -1.765    -1.391     H     1 
28   H12  -3.473     -2.725     0.096     H     1 
29   H13  -4.331     -0.785     1.131     H     1 
30   H14  -4.689      0.533    -1.072     H     1 
31   H15  -1.448      1.962     0.896     H     1 
32   H16  -2.510      0.014     2.236     H     1 
@<TRIPOS>BOND
 1    1    2     1
 2    1   11     2
 3    1   12     1
 4    2    3     1
 5    2   18     1
 6    2   19     1
 7    3    4     1
 8    3   20     1
 9    3   21     1
10    4    5     1
11    4   22     1
12    4   23     1
13    5    6     1
14    5   24     1
15    5   25     1
16    6   10     1
17    6   16     1
18    6   26     1
19    7    8     1
20    7   16     1
21    7   27     1
22    7   28     1
23    8   10     1
24    8   14     1
25    8   29     1
26    9   13     2
27    9   15     1
28   10   15     1
29   10   32     1
30   12   17     1
31   14    9     1
32   14   30     1
33   15   31     1
@<TRIPOS>SUBSTRUCTURE
 1   BIOTIN1  1