# Name: folicAcid

@<TRIPOS>MOLECULE
folicAcid
51 53 1 0  0
SMALL
NO_CHARGE

@<TRIPOS>ATOM
 1   N1    -1.069     0.579     7.888    N     1
 2   C1    -0.146    -0.159     8.558    C     1
 3   N2    -0.209    -0.199     9.922    N     1
 4   N3     0.802    -0.841     7.952    N     1
 5   C2     0.922    -0.847     6.618    C     1
 6   O1     1.807    -1.485     6.073    O     1
 7   C3    -0.043    -0.061     5.822    C     1
 8   N4     0.011    -0.018     4.498    N     1
 9   C4    -0.874     0.697     3.834    C     1
10   C5    -1.86      1.403     4.512    C     1
11   N5    -1.924     1.368     5.831    N     1
12   C6    -1.04      0.652     6.511    C     1
13   C7    -0.817     0.75      2.329    C     1
14   N6     0.3      -0.068     1.853    N     1
15   C8     1.06     -0.385    -2.225    C     1
16   C9     1.87     -1.059    -1.307    C     1
17   C10    1.616    -0.953     0.04     C     1
18   C11    0.554    -0.174     0.49     C     1
19   C12   -0.257     0.494    -0.421    C     1
20   C13   -0.0050    0.396    -1.77     C     1
21   C14    1.33     -0.497    -3.671    C     1
22   O2     2.258    -1.176    -4.065    O     1
23   N7     0.548     0.153    -4.555    N     1
24   C15    0.816     0.042    -5.991    C     1
25   C16   -0.494     0.181    -6.767    C     1
26   C17   -1.459    -0.926    -6.34     C     1
27   C18   -2.751    -0.789    -7.105    C     1
28   O3    -2.886     0.103    -7.908    O     1
29   O4    -3.751    -1.659    -6.893    O     1
30   C19    1.766     1.134    -6.41     C     1
31   O5     2.527     0.952    -7.331    O     1
32   O6     1.768     2.309    -5.761    O     1
33   H1    -1.752     1.06      8.381    H     1
34   H2     0.436    -0.722    10.422    H     1
35   H3    -0.897     0.298    10.391    H     1
36   H4    -2.58      1.985     3.957    H     1
37   H5    -1.75      0.366     1.916    H     1
38   H6    -0.674     1.782     2.007    H     1
39   H7     0.863    -0.536     2.49     H     1
40   H8     2.695    -1.663    -1.655    H     1
41   H9     2.242    -1.473     0.75     H     1
42   H10   -1.081     1.097    -0.068    H     1
43   H11   -0.633     0.918    -2.477    H     1
44   H12   -0.191     0.696    -4.24     H     1
45   H13    1.262    -0.928    -6.203    H     1
46   H14   -0.941     1.153    -6.554    H     1
47   H15   -0.295     0.099    -7.835    H     1
48   H16   -1.013    -1.898    -6.553    H     1
49   H17   -1.659    -0.843    -5.272    H     1
50   H18   -4.58     -1.571    -7.383    H     1
51   H19    2.377     3.009    -6.03     H     1
@<TRIPOS>BOND
 1    1    2    1
 2    1   12    1
 3    1   33    1
 4    2    3    1
 5    2    4    2
 6    3   34    1
 7    3   35    1
 8    4    5    1
 9    5    6    2
10    5    7    1
11    7    8    1
12    7   12    2
13    8    9    2
14    9   10    1
15    9   13    1
16   10   11    2
17   10   36    1
18   11   12    1
19   13   14    1
20   13   37    1
21   13   38    1
22   14   18    1
23   14   39    1
24   15   16    2
25   15   20    1
26   15   21    1
27   16   17    1
28   16   40    1
29   17   18    2
30   17   41    1
31   18   19    1
32   19   20    2
33   19   42    1
34   20   43    1
35   21   22    2
36   21   23    1
37   23   24    1
38   23   44    1
39   24   25    1
40   24   30    1
41   24   45    1
42   25   26    1
43   25   46    1
44   25   47    1
45   26   27    1
46   26   48    1
47   26   49    1
48   27   28    2
49   27   29    1
50   29   50    1
51   30   31    2
52   30   32    1
53   32   51    1
@<TRIPOS>SUBSTRUCTURE
1   FOLICACID1   1
