# Name: nicotinic acid

@<TRIPOS>MOLECULE
nicotinic acid
14 14 1 0 0
SMALL
NO_CHARGE

@<TRIPOS>ATOM
 1   N1    1.2060    -1.8220    -0.0010      N     1
 2   C1    1.1740    -0.5050     0.0040      C     1
 3   C2   -0.0440     0.1740    -0.0000      C     1
 4   C3   -1.2330    -0.5670     0.0000      C     1
 5   C4   -1.1440    -1.9470     0.0000      C     1
 6   C5    0.1030    -2.5460    -0.0000      C     1
 7   C6   -0.0810     1.6510    -0.0000      C     1
 8   O1   -1.1470     2.2320     0.0000      O     1
 9   O2    1.0680     2.3530    -0.0010      O     1
10   H1    2.0980     0.0520     0.0030      H     1
11   H2   -2.1930    -0.0740     0.0000      H     1
12   H3   -2.0390    -2.5520     0.0000      H     1
13   H4    0.1750    -3.6230    -0.0000      H     1
14   H5    1.0450     3.3190    -0.0010      H     1
@<TRIPOS>BOND
 1   1    2     2
 2   1    6     1
 3   2    3     1
 4   2   10     1
 5   3    4     2
 6   3    7     1
 7   4    5     1
 8   4   11     1
 9   5    6     2
10   5   12     1
11   6   13     1
12   7    8     2
13   7    9     1
14   9   14     1
@<TRIPOS>SUBSTRUCTURE
 1   NICOTINIC ACID1  1
