# Name: pantothenic acid

@<TRIPOS>MOLECULE
pantothenic acid
32 31 1 0 0
SMALL
NO_CHARGE

@<TRIPOS>ATOM
 1   O1    3.0870    -1.4800    -1.8760     O     1
 2   C1    2.4810     0.3770    -0.4540     C     1
 3   C2    2.5130    -1.1440    -0.6110     C     1
 4   C3    1.6390     0.9880    -1.5750     C     1
 5   C4    3.9070     0.9270    -0.5290     C     1
 6   C5    1.8670     0.7360     0.9000     C     1
 7   O2    2.7260     0.2830     1.9480     O     1
 8   C6    0.5200     0.0730     1.0320     C     1
 9   O3    0.3720    -0.8480     1.8050     O     1
10   N1   -0.5190     0.5060     0.2920     N     1
11   C7   -1.8470    -0.0840     0.4780     C     1
12   C8   -2.8390     0.5800    -0.4770     C     1
13   C9   -4.2050    -0.0260    -0.2850     C     1
14   O4   -5.2400     0.4030    -1.0230     O     1
15   O5   -4.3680    -0.9000     0.5320     O     1
16   H1    3.0880    -2.4450    -1.9350     H     1
17   H2    1.4970    -1.5360    -0.5580     H     1
18   H3    3.1130    -1.5800     0.1860     H     1
19   H4    0.6610     0.5060    -1.5990     H     1
20   H5    2.1410     0.8390    -2.5300     H     1
21   H6    1.5130     2.0560    -1.3930     H     1
22   H7    4.4890     0.5440     0.3080     H     1
23   H8    3.8790     2.0160    -0.4850     H     1
24   H9    4.3680     0.6130    -1.4650     H     1
25   H10   1.7480     1.8180     0.9690     H     1
26   H11   2.8040    -0.6750     1.8500     H     1
27   H12  -0.3880     1.2070    -0.3640     H     1
28   H13  -2.1730     0.0720     1.5060     H     1
29   H14  -1.8020    -1.1530     0.2700     H     1
30   H15  -2.5130     0.4230    -1.5060     H     1
31   H16  -2.8840     1.6490    -0.2700     H     1
32   H17  -6.1170     0.0140    -0.9000     H     1
@<TRIPOS>BOND
 1   1    3     1
 2   1   16     1
 3   2    3     1
 4   2    4     1
 5   2    5     1
 6   2    6     1
 7   3   17     1
 8   3   18     1
 9   4   19     1
10   4   20     1
11   4   21     1
12   5   22     1
13   5   23     1
14   5   24     1
15   6    7     1
16   6    8     1
17   6   25     1
18   7   26     1
19   8    9     2
20   8   10     1
21  10   11     1
22  10   27     1
23  11   12     1
24  11   28     1
25  11   29     1
26  12   13     1
27  12   30     1
28  12   31     1
29  13   14     1
30  13   15     2
31  14   32     1
@<TRIPOS>SUBSTRUCTURE
 1   PANTOTHENIC ACID1  1
