# Name: pyridoxal-P

@<TRIPOS>MOLECULE
pyridoxal-P
26 26 1 0  0
SMALL
NO_CHARGE

@<TRIPOS>ATOM
 1   N1     2.053    -0.012     1.991    N     1
 2   C1     1.286    -0.0080    3.06     C     1
 3   C2     1.916    -0.021     4.429    C     1
 4   C3    -0.098     0.0020    2.942    C     1
 5   O1    -0.884     0.0070    4.047    O     1
 6   C4    -0.668     0.02      1.657    C     1
 7   C5    -2.129     0.039     1.476    C     1
 8   O2    -2.859     0.043     2.444    O     1
 9   C6     0.195     0.015     0.553    C     1
10   C7     1.557    -0.0010    0.769    C     1
11   C8    -0.356     0.027    -0.849    C     1
12   O3     0.722     0.018    -1.785    O     1
13   P1     0.064     0.032    -3.254    P     1
14   O4    -0.759     1.251    -3.414    O     1
15   O5     1.229     0.023    -4.365    O     1
16   O6    -0.863    -1.27     -3.439    O     1
17   H1     2.08      1.003     4.763    H     1
18   H2     1.254    -0.53      5.129    H     1
19   H3     2.871    -0.545     4.384    H     1
20   H4    -1.061    -0.917     4.268    H     1
21   H5    -2.55      0.048     0.482    H     1
22   H6     2.229    -0.0050   -0.076    H     1
23   H7    -0.978    -0.854    -1.002    H     1
24   H8    -0.957     0.925    -0.995    H     1
25   H9     0.793     0.031    -5.228    H     1
26   H10   -0.289    -2.04     -3.327    H     1
@<TRIPOS>BOND
 1    1    2    2
 2    1   10    1
 3    2    3    1
 4    2    4    1
 5    3   17    1
 6    3   18    1
 7    3   19    1
 8    4    5    1
 9    4    6    2
10    5   20    1
11    6    7    1
12    6    9    1
13    7    8    2
14    7   21    1
15    9   10    2
16    9   11    1
17   10   22    1
18   11   12    1
19   11   23    1
20   11   24    1
21   12   13    1
22   13   14    2
23   13   15    1
24   13   16    1
25   15   25    1
26   16   26    1
@<TRIPOS>SUBSTRUCTURE
1   PYRIDOXAL-P1   1
