# Name: riboflavin

@<TRIPOS>MOLECULE
riboflavin
47 49 1 0  0
SMALL
NO_CHARGE

@<TRIPOS>ATOM
 1   N1    -2.385    -0.668     0.511    N     1
 2   C1    -3.567    -0.449     1.081    C     1
 3   O1    -4.568    -0.723     0.444    O     1
 4   N2    -3.724     0.052     2.314    N     1
 5   C2    -2.658     0.379     3.082    C     1
 6   O2    -2.798     0.835     4.2      O     1
 7   C3    -1.315     0.158     2.501    C     1
 8   N3    -0.217     0.438     3.155    N     1
 9   C4     0.983     0.225     2.6      C     1
10   C5     2.153     0.533     3.32     C     1
11   C6     3.374     0.318     2.758    C     1
12   C7     4.622     0.65      3.535    C     1
13   C8     3.483    -0.199     1.471    C     1
14   C9     4.847    -0.427     0.871    C     1
15   C10    2.357    -0.514     0.744    C     1
16   C11    1.095    -0.306     1.295    C     1
17   N4    -0.034    -0.614     0.568    N     1
18   C12   -1.252    -0.397     1.139    C     1
19   C13    0.071    -1.165    -0.784    C     1
20   C14    0.091    -0.022    -1.8      C     1
21   O3    -1.115     0.735    -1.688    O     1
22   C15    0.201    -0.598    -3.213    C     1
23   O4     1.408    -1.356    -3.326    O     1
24   C16    0.221     0.545    -4.23     C     1
25   O5    -0.984     1.303    -4.117    O     1
26   C17    0.332    -0.03     -5.643    C     1
27   O6     0.35      1.038    -6.592    O     1
28   H1    -4.619     0.183     2.664    H     1
29   H2     2.082     0.94      4.318    H     1
30   H3     4.934    -0.22      4.111    H     1
31   H4     5.416     0.932     2.844    H     1
32   H5     4.418     1.479     4.212    H     1
33   H6     5.162     0.468     0.336    H     1
34   H7     5.561    -0.646     1.665    H     1
35   H8     4.804    -1.268     0.179    H     1
36   H9     2.452    -0.919    -0.252    H     1
37   H10    0.991    -1.744    -0.87     H     1
38   H11   -0.783    -1.812    -0.981    H     1
39   H12    0.946     0.624    -1.603    H     1
40   H13   -1.845     0.128    -1.869    H     1
41   H14   -0.653    -1.244    -3.411    H     1
42   H15    2.138    -0.748    -3.145    H     1
43   H16    1.076     1.192    -4.033    H     1
44   H17   -1.714     0.695    -4.299    H     1
45   H18    1.252    -0.608    -5.729    H     1
46   H19   -0.522    -0.676    -5.84     H     1
47   H20    0.421     0.633    -7.467    H     1
@<TRIPOS>BOND
 1    1    2    1
 2    1   18    2
 3    2    3    2
 4    2    4    1
 5    4    5    1
 6    4   28    1
 7    5    6    2
 8    5    7    1
 9    7    8    2
10    7   18    1
11    8    9    1
12    9   10    2
13    9   16    1
14   10   11    1
15   10   29    1
16   11   12    1
17   11   13    2
18   12   30    1
19   12   31    1
20   12   32    1
21   13   14    1
22   13   15    1
23   14   33    1
24   14   34    1
25   14   35    1
26   15   16    2
27   15   36    1
28   16   17    1
29   17   18    1
30   17   19    1
31   19   20    1
32   19   37    1
33   19   38    1
34   20   21    1
35   20   22    1
36   20   39    1
37   21   40    1
38   22   23    1
39   22   24    1
40   22   41    1
41   23   42    1
42   24   25    1
43   24   26    1
44   24   43    1
45   25   44    1
46   26   27    1
47   26   45    1
48   26   46    1
49   27   47    1
@<TRIPOS>SUBSTRUCTURE
1   RIBOFLAVIN1   1
