# Name: thiamine PP

@<TRIPOS>MOLECULE
thiamine PP
45 46 1 0  0
SMALL
NO_CHARGE

@<TRIPOS>ATOM
 1   N1    -6.096    -2.273    -0.022    N     1
 2   C1    -7.012    -1.612     0.656    C     1
 3   C2    -8.035    -2.382     1.451    C     1
 4   N2    -7.058    -0.295     0.66     N     1
 5   C3    -6.172     0.417    -0.03     C     1
 6   N3    -6.223     1.801    -0.024    N     1
 7   C4    -5.188    -0.254    -0.76     C     1
 8   C5    -5.178    -1.634    -0.733    C     1
 9   C6    -4.162     0.511    -1.557    C     1
10   N4    -3.086     0.956    -0.668    N     1
11   C7    -3.122     2.112    -0.095    C     1
12   S1    -1.73      2.334     0.873    S     1
13   C8    -1.143     0.738     0.41     C     1
14   C9    -2.043     0.192    -0.414    C     1
15   C10   -1.875    -1.182    -1.009    C     1
16   C11    0.142     0.099     0.869    C     1
17   C12    1.267     0.463    -0.102    C     1
18   O1     2.486    -0.144     0.332    O     1
19   P1     3.88      0.027    -0.455    P     1
20   O2     4.181     1.467    -0.617    O     1
21   O3     3.765    -0.663    -1.905    O     1
22   O4     5.06     -0.677     0.383    O     1
23   P2     6.664    -0.536     0.392    P     1
24   O5     7.154    -0.393    -0.997    O     1
25   O6     7.083     0.763     1.246    O     1
26   O7     7.314    -1.849     1.059    O     1
27   H1    -7.66     -2.548     2.461    H     1
28   H2    -8.964    -1.814     1.496    H     1
29   H3    -8.22     -3.343     0.97     H     1
30   H4    -6.909     2.259     0.486    H     1
31   H5    -5.572     2.313    -0.53     H     1
32   H6    -4.432    -2.186    -1.285    H     1
33   H7    -3.748    -0.136    -2.331    H     1
34   H8    -4.633     1.377    -2.02     H     1
35   H9    -3.916     2.835    -0.21     H     1
36   H10   -1.256    -1.117    -1.904    H     1
37   H11   -1.394    -1.836    -0.282    H     1
38   H12   -2.852    -1.586    -1.272    H     1
39   H13    0.392     0.46      1.866    H     1
40   H14    0.02     -0.984     0.895    H     1
41   H15    1.017     0.101    -1.1      H     1
42   H16    1.389     1.545    -0.128    H     1
43   H17    3.568    -1.609    -1.876    H     1
44   H18    6.793     0.738     2.168    H     1
45   H19    8.28     -1.833     1.098    H     1
@<TRIPOS>BOND
 1    1    2    2
 2    1    8    1
 3    2    3    1
 4    2    4    1
 5    3   27    1
 6    3   28    1
 7    3   29    1
 8    4    5    2
 9    5    6    1
10    5    7    1
11    6   30    1
12    6   31    1
13    7    8    2
14    7    9    1
15    8   32    1
16    9   10    1
17    9   33    1
18    9   34    1
19   10   11    2
20   10   14    1
21   11   12    1
22   11   35    1
23   12   13    1
24   13   14    2
25   13   16    1
26   14   15    1
27   15   36    1
28   15   37    1
29   15   38    1
30   16   17    1
31   16   39    1
32   16   40    1
33   17   18    1
34   17   41    1
35   17   42    1
36   18   19    1
37   19   20    2
38   19   21    1
39   19   22    1
40   21   43    1
41   22   23    1
42   23   24    2
43   23   25    1
44   23   26    1
45   25   44    1
46   26   45    1
@<TRIPOS>SUBSTRUCTURE
1   THIAMINE PP1   1
