# Name: vitaminD3

@<TRIPOS>MOLECULE
vitaminD3
74 76 1 0  0
SMALL
NO_CHARGE

@<TRIPOS>ATOM
 1   O1    -1.26      1.799    -7.708    O     1
 2   O2    -2.818     0.819     6.766    O     1
 3   C1    -2.455    -0.546    -5.027    C     1
 4   C2    -2.317     0.041    -6.435    C     1
 5   C3    -1.276     1.161    -6.429    C     1
 6   C4     0.109     0.58     -6.132    C     1
 7   C5     0.05     -0.138    -4.799    C     1
 8   C6     0.998     0.042    -3.856    C     1
 9   C7     0.906    -0.67     -2.58     C     1
10   C8     1.842    -0.492    -1.648    C     1
11   C9     3.03      0.437    -1.853    C     1
12   C10   -1.092    -1.05     -4.585    C     1
13   C11    3.181     1.389    -0.668    C     1
14   C12    3.123     0.642     0.674    C     1
15   C13    1.801    -0.074     0.756    C     1
16   C14    1.801    -1.194    -0.324    C     1
17   C15    0.51     -1.941     0.018    C     1
18   C16    0.55     -2.003     1.571    C     1
19   C17    1.445    -0.822     2.031    C     1
20   C18    0.674     0.903     0.415    C     1
21   C19   -0.938    -2.25     -4.026    C     1
22   C20    0.672     0.09      2.985    C     1
23   C21    1.548     1.283     3.37     C     1
24   C22    0.293    -0.692     4.244    C     1
25   C23   -0.479     0.22      5.198    C     1
26   C24   -0.858    -0.561     6.457    C     1
27   C25   -1.632     0.351     7.411    C     1
28   C26   -2.01     -0.43      8.67     C     1
29   C27   -0.756     1.545     7.796    C     1
30   O3    -2.916     0.463    -4.127    O     1
31   H1    -0.596     2.501    -7.662    H     1
32   H2    -3.34      0.037     6.54     H     1
33   H3    -3.164    -1.374    -5.043    H     1
34   H4    -3.279     0.441    -6.756    H     1
35   H5    -2.003    -0.741    -7.125    H     1
36   H6    -1.535     1.892    -5.663    H     1
37   H7     0.842     1.386    -6.083    H     1
38   H8     0.388    -0.122    -6.917    H     1
39   H9     1.824     0.711    -4.042    H     1
40   H10    0.079    -1.34     -2.394    H     1
41   H11    3.938    -0.157    -1.954    H     1
42   H12    2.878     1.017    -2.763    H     1
43   H13    4.138     1.905    -0.747    H     1
44   H14    2.378     2.125    -0.7      H     1
45   H15    3.933    -0.085     0.727    H     1
46   H16    3.209     1.353     1.496    H     1
47   H17    2.667    -1.846    -0.206    H     1
48   H18    0.519    -2.944    -0.408    H     1
49   H19   -0.361    -1.383    -0.323    H     1
50   H20    0.982    -2.949     1.897    H     1
51   H21   -0.455    -1.89      1.976    H     1
52   H22    2.347    -1.197     2.514    H     1
53   H23    0.826     1.296    -0.589    H     1
54   H24   -0.282     0.384     0.461    H     1
55   H25    0.677     1.724     1.131    H     1
56   H26    0.042    -2.583    -3.722    H     1
57   H27   -1.795    -2.891    -3.879    H     1
58   H28   -0.232     0.446     2.492    H     1
59   H29    2.452     0.927     3.862    H     1
60   H30    1.818     1.841     2.473    H     1
61   H31    0.997     1.934     4.049    H     1
62   H32   -0.33     -1.542     3.969    H     1
63   H33    1.198    -1.048     4.736    H     1
64   H34    0.144     1.071     5.472    H     1
65   H35   -1.384     0.577     4.706    H     1
66   H36   -1.482    -1.411     6.182    H     1
67   H37    0.045    -0.918     6.949    H     1
68   H38   -2.561     0.22      9.35     H     1
69   H39   -2.634    -1.28      8.396    H     1
70   H40   -1.106    -0.787     9.162    H     1
71   H41    0.148     1.188     8.288    H     1
72   H42   -0.486     2.102     6.899    H     1
73   H43   -1.306     2.196     8.476    H     1
74   H44   -2.988     0.05     -3.256    H     1
@<TRIPOS>BOND
 1    1    5    1
 2    1   31    1
 3    2   27    1
 4    2   32    1
 5    3    4    1
 6    3   12    1
 7    3   30    1
 8    3   33    1
 9    4    5    1
10    4   34    1
11    4   35    1
12    5    6    1
13    5   36    1
14    6    7    1
15    6   37    1
16    6   38    1
17    7    8    2
18    7   12    1
19    8    9    1
20    8   39    1
21    9   10    2
22    9   40    1
23   10   11    1
24   10   16    1
25   11   13    1
26   11   41    1
27   11   42    1
28   12   21    2
29   13   14    1
30   13   43    1
31   13   44    1
32   14   15    1
33   14   45    1
34   14   46    1
35   15   16    1
36   15   19    1
37   15   20    1
38   16   17    1
39   16   47    1
40   17   18    1
41   17   48    1
42   17   49    1
43   18   19    1
44   18   50    1
45   18   51    1
46   19   22    1
47   19   52    1
48   20   53    1
49   20   54    1
50   20   55    1
51   21   56    1
52   21   57    1
53   22   23    1
54   22   24    1
55   22   58    1
56   23   59    1
57   23   60    1
58   23   61    1
59   24   25    1
60   24   62    1
61   24   63    1
62   25   26    1
63   25   64    1
64   25   65    1
65   26   27    1
66   26   66    1
67   26   67    1
68   27   28    1
69   27   29    1
70   28   68    1
71   28   69    1
72   28   70    1
73   29   71    1
74   29   72    1
75   29   73    1
76   30   74    1
@<TRIPOS>SUBSTRUCTURE
1   VITAMIND31   1
