	@<TRIPOS>MOLECULE
	peroxide
	14 13 1  0       0
	SMALL
	NO_CHARGES
      
      @<TRIPOS>ATOM
      1		O1      0.0000 4.1088 0.6383	O	1       PEROXIDE 0.000
      2		O2	0.0000 3.3442 -0.6383	O	1	PEROXIDE 0.000
        
      @<TRIPOS>BOND
      1       1       2       1
      
      @<TRIPOS>SUBSTRUCTURE
      1       PEROXIDE 1       PERM    0       ****    ****    0       ROOT

