# Name: ADP

@<TRIPOS>MOLECULE
ADP
42 44 1 0  0
SMALL
NO_CHARGE

@<TRIPOS>ATOM
 1   P1     1.162    -0.221    -5.685    P     1
 2   O1     1.725     1.133    -5.492    O     1
 3   O2     2.19     -1.112    -6.546    O     1
 4   O3    -0.24     -0.113    -6.467    O     1
 5   P2    -0.105     0.025    -3.446    P     1
 6   O4     0.476     1.376    -3.288    O     1
 7   O5    -1.487     0.129    -4.266    O     1
 8   O6     0.925    -0.913    -4.25     O     1
 9   O7    -0.389    -0.609    -1.994    O     1
10   C1    -1.307     0.264    -1.333    C     1
11   C2    -1.62     -0.284     0.059    C     1
12   O8    -0.417    -0.348     0.857    O     1
13   C3    -2.55      0.683     0.825    C     1
14   O9    -3.907     0.245     0.739    O     1
15   C4    -2.047     0.611     2.286    C     1
16   O10   -3.08      0.129     3.148    O     1
17   C5    -0.871    -0.388     2.227    C     1
18   N1     0.201     0.031     3.132    N     1
19   C6     1.231     0.87      2.827    C     1
20   N2     2.0       1.027     3.865    N     1
21   C7     1.509     0.305     4.902    C     1
22   C8     1.91      0.087     6.231    C     1
23   N3     3.044     0.697     6.738    N     1
24   N4     1.171    -0.714     6.991    N     1
25   C9     0.088    -1.3       6.516    C     1
26   N5    -0.321    -1.13      5.277    N     1
27   C10    0.353    -0.346     4.442    C     1
28   H1     2.304    -0.664    -7.396    H     1
29   H2    -0.572    -1.016    -6.571    H     1
30   H3    -1.833    -0.77     -4.346    H     1
31   H4    -2.227     0.33     -1.913    H     1
32   H5    -0.862     1.255    -1.242    H     1
33   H6    -2.078    -1.27     -0.015    H     1
34   H7    -2.451     1.696     0.435    H     1
35   H8    -4.439     0.884     1.233    H     1
36   H9    -1.699     1.589     2.618    H     1
37   H10   -3.807     0.764     3.094    H     1
38   H11   -1.212    -1.391     2.485    H     1
39   H12    1.387     1.335     1.865    H     1
40   H13    3.308     0.542     7.658    H     1
41   H14    3.577     1.277     6.172    H     1
42   H15   -0.482    -1.944     7.169    H     1
@<TRIPOS>BOND
 1    1    2    2
 2    1    3    1
 3    1    4    1
 4    1    8    1
 5    3   28    1
 6    4   29    1
 7    5    6    2
 8    5    7    1
 9    5    8    1
10    5    9    1
11    7   30    1
12    9   10    1
13   10   11    1
14   10   31    1
15   10   32    1
16   11   12    1
17   11   13    1
18   11   33    1
19   12   17    1
20   13   14    1
21   13   15    1
22   13   34    1
23   14   35    1
24   15   16    1
25   15   17    1
26   15   36    1
27   16   37    1
28   17   18    1
29   17   38    1
30   18   19    1
31   18   27    1
32   19   20    2
33   19   39    1
34   20   21    1
35   21   22    1
36   21   27    2
37   22   23    1
38   22   24    2
39   23   40    1
40   23   41    1
41   24   25    1
42   25   26    2
43   25   42    1
44   26   27    1
@<TRIPOS>SUBSTRUCTURE
1   ADP1   1