# Name: AMP

@<TRIPOS>MOLECULE
AMP
37 39 1 0  0
SMALL
NO_CHARGE

@<TRIPOS>ATOM
 1   P1    -4.788     0.931    -0.154    P     1
 2   O1    -5.661    -0.201     0.231    O     1
 3   O2    -4.479     1.835     1.141    O     1
 4   O3    -5.53      1.826    -1.268    O     1
 5   O4    -3.407     0.363    -0.755    O     1
 6   C1    -2.857    -0.513     0.231    C     1
 7   C2    -1.535    -1.09     -0.279    C     1
 8   O5    -0.544    -0.046    -0.401    O     1
 9   C3    -0.943    -2.078     0.75     C     1
10   O6    -1.257    -3.425     0.389    O     1
11   C4     0.582    -1.836     0.67     C     1
12   O7     1.257    -3.027     0.26     O     1
13   C5     0.729    -0.728    -0.396    C     1
14   N1     1.802     0.198    -0.025    N     1
15   C6     1.658     1.363     0.669    C     1
16   N2     2.817     1.935     0.823    N     1
17   C7     3.776     1.173     0.244    C     1
18   C8     5.168     1.286     0.09     C     1
19   N3     5.853     2.37      0.611    N     1
20   N4     5.813     0.324    -0.563    N     1
21   C9     5.168    -0.714    -1.063    C     1
22   N5     3.864    -0.858    -0.948    N     1
23   C10    3.135     0.053    -0.312    C     1
24   H1    -3.909     2.559     0.848    H     1
25   H2    -6.351     2.146    -0.869    H     1
26   H3    -3.557    -1.325     0.426    H     1
27   H4    -2.679     0.043     1.152    H     1
28   H5    -1.684    -1.585    -1.239    H     1
29   H6    -1.315    -1.855     1.75     H     1
30   H7    -0.864    -3.994     1.065    H     1
31   H8     0.965    -1.492     1.631    H     1
32   H9     1.078    -3.696     0.935    H     1
33   H10    0.928    -1.166    -1.374    H     1
34   H11    0.72      1.754     1.036    H     1
35   H12    6.814     2.434     0.501    H     1
36   H13    5.37      3.067     1.082    H     1
37   H14    5.731    -1.472    -1.587    H     1
@<TRIPOS>BOND
 1    1    2    2
 2    1    3    1
 3    1    4    1
 4    1    5    1
 5    3   24    1
 6    4   25    1
 7    5    6    1
 8    6    7    1
 9    6   26    1
10    6   27    1
11    7    8    1
12    7    9    1
13    7   28    1
14    8   13    1
15    9   10    1
16    9   11    1
17    9   29    1
18   10   30    1
19   11   12    1
20   11   13    1
21   11   31    1
22   12   32    1
23   13   14    1
24   13   33    1
25   14   15    1
26   14   23    1
27   15   16    2
28   15   34    1
29   16   17    1
30   17   18    1
31   17   23    2
32   18   19    1
33   18   20    2
34   19   35    1
35   19   36    1
36   20   21    1
37   21   22    2
38   21   37    1
39   22   23    1
@<TRIPOS>SUBSTRUCTURE
1   AMP1   1