# Name: cyclicAMP

@<TRIPOS>MOLECULE
cyclicAMP
34 37 1 0  0
SMALL
NO_CHARGE

@<TRIPOS>ATOM
 1   P1     0.035     0.457    -4.129    P     1
 2   O1     1.127     1.448    -4.01     O     1
 3   O2    -0.773     0.723    -5.496    O     1
 4   O3     0.664    -1.02     -4.167    O     1
 5   C1     1.291    -1.282    -2.903    C     1
 6   C2     0.229    -1.157    -1.826    C     1
 7   O4     0.656    -1.453    -0.497    O     1
 8   C3    -0.193     0.332    -1.731    C     1
 9   O5    -0.97      0.624    -2.876    O     1
10   C4    -0.954     0.34     -0.394    C     1
11   O6    -2.353     0.144    -0.61     O     1
12   C5    -0.331    -0.851     0.372    C     1
13   N1     0.309    -0.374     1.6      N     1
14   C6     1.602     0.035     1.728    C     1
15   N2     1.836     0.393     2.958    N     1
16   C7     0.708     0.241     3.693    C     1
17   C8     0.372     0.452     5.041    C     1
18   N3     1.309     0.938     5.937    N     1
19   N4    -0.867     0.18      5.434    N     1
20   C9    -1.767    -0.282     4.587    C     1
21   N5    -1.496    -0.501     3.317    N     1
22   C10   -0.282    -0.258     2.833    C     1
23   H1    -0.136     0.638    -6.218    H     1
24   H2     2.083    -0.554    -2.726    H     1
25   H3     1.706    -2.29     -2.899    H     1
26   H4    -0.632    -1.772    -2.084    H     1
27   H5     0.687     0.973    -1.69     H     1
28   H6    -0.776     1.272     0.143    H     1
29   H7    -2.775     0.159     0.259    H     1
30   H8    -1.104    -1.58      0.616    H     1
31   H9     2.327     0.059     0.928    H     1
32   H10    1.063     1.083     6.864    H     1
33   H11    2.212     1.129     5.639    H     1
34   H12   -2.763    -0.49      4.948    H     1
@<TRIPOS>BOND
 1    1    2    2
 2    1    3    1
 3    1    4    1
 4    1    9    1
 5    3   23    1
 6    4    5    1
 7    5    6    1
 8    5   24    1
 9    5   25    1
10    6    7    1
11    6    8    1
12    6   26    1
13    7   12    1
14    8    9    1
15    8   10    1
16    8   27    1
17   10   11    1
18   10   12    1
19   10   28    1
20   11   29    1
21   12   13    1
22   12   30    1
23   13   14    1
24   13   22    1
25   14   15    2
26   14   31    1
27   15   16    1
28   16   17    1
29   16   22    2
30   17   18    1
31   17   19    2
32   18   32    1
33   18   33    1
34   19   20    1
35   20   21    2
36   20   34    1
37   21   22    1
@<TRIPOS>SUBSTRUCTURE
1   CYCLICAMP1   1