# Name: pDNA 119D

@<TRIPOS>MOLECULE
pDNA 119D
48 54 0 0
SMALL
NO_CHARGE

@<TRIPOS>ATOM
 1   O1     14.246   -9.031   11.928   O  1
 2   P1     15.297  -10.131   11.406   P  1
 3   O2     14.909  -10.668   10.064   O  1
 4   O3     15.445  -11.237   12.422   O  1
 5   O4     16.685   -9.356   11.229   O  1
 6   C1     17.229   -8.730   10.089   C  1
 7   C2     16.514   -7.457    9.638   C  1
 8   C3     17.303   -6.361   10.358   C  1
 9   O5     18.664   -6.870   10.370   O  1
10   C4     18.655   -8.264   10.269   C  1
11   C5     19.756   -8.858    9.461   C  1
12   N1     17.257   -5.127    9.545   N  1
13   C6     17.491   -5.000    8.200   C  1
14   C7     16.954   -3.858    9.995   C  1
15   N2     17.366   -3.766    7.756   N  1
16   C8     17.029   -3.034    8.889   C  1
17   N3     16.645   -3.497   11.257   N  1
18   C9     16.421   -2.178   11.356   C  1
19   N4     16.454   -1.266   10.342   N  1
20   C10    16.770   -1.651    9.063   C  1
21   N5     16.827   -0.774    8.086   N  1
22   O6     19.396   -8.900    8.063   O  1
23   P2     20.262   -8.094    6.966   P  1
24   O7     19.430   -7.518    5.856   O  1
25   O8     21.449   -8.826    6.454   O  1
26   O9     20.723   -6.775    7.787   O  1
27   C11    21.674   -5.887    7.174   C  1
28   C12    21.071   -4.508    6.844   C  1
29   C13    21.061   -3.946    8.265   C  1
30   O10    22.404   -4.268    8.752   O  1
31   C14    22.749   -5.530    8.205   C  1
32   C15    24.128   -5.523    7.602   C  1
33   N6     20.839   -2.496    8.296   N  1
34   O11    23.936   -5.092    6.196   O  1
35   C16    20.970   -1.570    7.285   C  1
36   C17    20.439   -1.793    9.415   C  1
37   N7     20.689   -0.354    7.655   N  1
38   C18    20.358   -0.474    9.008   C  1
39   N8     20.190   -2.291   10.639   N  1
40   C19    19.819   -1.344   11.515   C  1
41   N9     19.694   -0.014   11.232   N  1
42   C20    19.963    0.492    9.975   C  1
43   N10    19.536   -1.697   12.782   N  1
44   O12    19.840    1.704    9.798   O  1
45   P3     25.318   -4.660    5.509   P  1
46   O13    26.184   -5.902    5.428   O  1
47   O14    25.177   -3.808    4.316   O  1
48   O15    25.983   -3.674    6.588   O  1
@<TRIPOS>BOND
 1    1   2   1
 2    2   3   1
 3    2   4   1
 4    2   5   1
 5    5   6   1 
 6    6  10   1
 7    7   8   1
 8    8   9   1
 9    8  12   1
10    9  10   1
11   10  11   1
12   11  22   1
13   13  15   1
14   14  16   1
15   14  17   1 
16   15  16   1
17   16  20   1
18   17  18   1
19   18  19   1
20   19  20   1
21   20  21   1
22   22  23   1
23   23  24   1
24   23  25   1
25   23  26   1
26   26  27   1
27   27  28   1
28   27  31   1
29   28  29   1
30   29  30   1
31   29  33   1
32   30  31   1
33   31  32   1
34   32  34   1 
35   34  45   1
36   33  35   1
37   33  36   1
38   35  37   1
39   36  39   1
40   37  38   1
41   38  42   1
42   39  40   1
43   40  41   1
44   40  43   1
45   41  42   1
46   42  44   1
47   45  46   1
48   45  47   1
49   45  48   1
50   46  49   1
51   36  38   1
52   12  13   1
53   12  14   1
54    6   7   1
@<TRIPOS>SUBSTRUCTURE
 1   pDNA119D1   1