# Name: carboxyl group

@<TRIPOS>MOLECULE
carboxyl group
4 3 1 0 0
SMALL
NO_CHARGE
##nbv 1

@<TRIPOS>ATOM
 1    C1     0.0        0.0         0.0        C    1
 2    O1     0.98848   -0.11386    -0.72309    O    1
 3    O2    -0.75443    1.21352    -0.00707    O    1
 4    H1    -0.35561    1.83909    -0.63198    H    1
##    bv    -0.27567   -0.75667     0.59283  -100   1
@<TRIPOS>BOND
 1    1   2   2
 2    1   3   1
 3    3   4   1
@<TRIPOS>SUBSTRUCTURE
 1   CARBOXYL GROUP1   1