# Name: formyl group

@<TRIPOS>MOLECULE
formyl group
3 2 1 0 0
SMALL
NO_CHARGE
##nbv 1

@<TRIPOS>ATOM
 1   C1    0.0        0.0        0.0        C     1
 2   O1    1.18889    0.01678    0.31491    O     1
 3   H1   -0.47808   -0.94055   -0.27367    H     1
##   bv   -0.52797    0.84925   -0.00495  -100    1
@<TRIPOS>BOND
 1   1    2     2
 2   1    3     1
@<TRIPOS>SUBSTRUCTURE
 1   FORMYL GROUP1  1