# Name: phenyl group

@<TRIPOS>MOLECULE
phenyl group
11 11 1 0 0
SMALL
NO_CHARGE
##nbv 1

@<TRIPOS>ATOM
 1   C1    1.09472    0.0        0.0     C     1
 2   C2    1.79027    1.20473    0.0     C     1
 3   C3    3.18137    1.20473    0.0     C     1
 4   C4    3.87692    0.0        0.0     C     1
 5   C5    3.18137   -1.20473    0.0     C     1
 6   C6    1.79027   -1.20473    0.0     C     1
 7   H1    1.24291    2.152785   0.0     H     1
 8   H2    3.72873    2.152785   0.0     H     1
 9   H3    4.97164    0.0        0.0     H     1
10   H4    3.72873   -2.152785   0.0     H     1
11   H5    1.24291   -2.152785   0.0     H     1
##   bv   -1.0        0.0        0.0   -100    1
@<TRIPOS>BOND
 1   1    2     2
 2   1    6     1
 3   2    3     1
 4   2    7     1
 5   3    4     2
 6   3    8     1
 7   4    5     1
 8   4    9     1
 9   5    6     2
10   5   10     1
11   6   11     1 
@<TRIPOS>SUBSTRUCTURE
 1   PHENYL GROUP1  1