# Name: pyrrolyl group

@<TRIPOS>MOLECULE
pyrrolyl group
9 9 1 0 0
SMALL
NO_CHARGE
##nbv 1

@<TRIPOS>ATOM
 1   C1    0.0        0.0        0.0         C     1
 2   C2    0.51855    1.26431    0.12651     C     1
 3   H1    0.10329    2.16813   -0.31933     H     1
 4   N1    0.80778   -0.91918    0.69811     N     1
 5   H2    0.56063   -1.91905    0.70685     H     1
 6   H3   -0.90160   -0.25479   -0.55705     H     1
 7   C3    1.84605   -0.02888    1.27026     C     1
 8   H4    2.65267   -0.39305    1.90654     H     1
 9   C4    1.71444    1.19978    0.95409     H     1
##   bv    0.59383    0.75969    0.26504   -900    1
@<TRIPOS>BOND
 1   1    2     2
 2   1    4     1
 3   1    6     1
 4   2    3     1
 5   2    9     1
 6   4    5     1
 7   4    7     1
 8   7    8     1
 9   7    9     2
@<TRIPOS>SUBSTRUCTURE
 1   PYRROLYL GROUP1  1