# Name: solvent water

@<TRIPOS>MOLECULE
solvent water
3 2 1 0 0
SMALL
NO_CHARGE
##nbv 2

@<TRIPOS>ATOM
 1   O1    0.0        0.0        0.0          O     1
 2   H1   -0.029140   0.904399   0.312339     H     1
 3   H2    0.933643  -0.200520  -0.066830     H     1
##   bv   -0.435840  -0.608240   0.663390   -100    1
##   bv   -0.459750  -0.085800  -0.883890   -101    1
@<TRIPOS>BOND
 1   1    2     1
 2   1    3     1
@<TRIPOS>SUBSTRUCTURE
 1   SOLVENT_H2O1  1