# Name: charmmwater

@<TRIPOS>MOLECULE
charmmwater
6 4 2 0 0
SMALL
NO_CHARGE

@<TRIPOS>ATOM
 1   O1   -1.30910   -0.25601   -0.24045    O     1
 2   H1   -1.85344    0.07163    0.52275    H     1
 3   H2   -1.70410    0.16529   -1.04499    H     1
 4   O2    1.37293    0.05498    0.10603    O     2
 5   H3    1.65858   -0.85643    0.10318    H     2
 6   H4    0.40780   -0.02508   -0.02820    H     2

@<TRIPOS>BOND
 1   1    2     1
 2   1    3     1
 3   4    5     1
 4   4    6     1
@<TRIPOS>SUBSTRUCTURE
// 1   WATER1  1

 