# Name: formic acid

@<TRIPOS>MOLECULE
fromic acid
5 4 1 0 0
SMALL
NO_CHARGE

@<TRIPOS>ATOM
 1    C1     0.0        0.0        0.0        C    1
 2    O1     1.18889    0.01678    0.31491    O    1
 3    O2    -0.75443    1.21352   -0.00707    O    1
 4    H1    -0.48247   -0.94918   -0.27618    H    1
 5    H2    -0.18355    1.95124    0.25895    H    1
@<TRIPOS>BOND
 1    1   2   2
 2    1   3   1
 3    1   4   1
 4    3   5   1
@<TRIPOS>SUBSTRUCTURE
 1   FORMIC ACID1   1