# Name: methane

@<TRIPOS>MOLECULE
methane
5 4 1 0 0
SMALL
NO_CHARGE

@<TRIPOS>ATOM
 1   C1    0.0        0.0        0.0        O     1
 2   H1   -0.07586    1.01231    0.34090    H     1
 3   H2    1.03202   -0.26748   -0.09859    H     1
 4   H3   -0.46756   -0.65841    0.70310    H     1
 5   H4   -0.48636   -0.09490   -0.94907    H     1
@<TRIPOS>BOND
 1   1    2     1
 2   1    3     1
 3   1    4     1
 4   1    5     1
@<TRIPOS>SUBSTRUCTURE
 1   METHANE1  1