# Name: pyridine

@<TRIPOS>MOLECULE
pyridine
11 11 1 0 0
SMALL
NO_CHARGE

@<TRIPOS>ATOM
 1   N1    0.0        1.09472    0.0     C     1
 2   C1   -1.20473    1.79027    0.0     C     1
 3   C2   -1.20473    3.18137    0.0     C     1
 4   C3    0.0        3.87692    0.0     C     1
 5   C4    1.20473    3.18137    0.0     C     1
 6   C5    1.20473    1.79027    0.0     C     1
 7   H1   -2.152785   1.24291    0.0     H     1
 8   H2   -2.152785   3.72873    0.0     H     1
 9   H3    0.0        4.97164    0.0     H     1
10   H4    2.152785   3.72873    0.0     H     1
11   H5    2.152785   1.24291    0.0     H     1
@<TRIPOS>BOND
 1   1    2     2
 2   1    6     1
 3   2    3     1
 4   2    7     1
 5   3    4     2
 6   3    8     1
 7   4    5     1
 8   4    9     1
 9   5    6     2
10   5   10     1
11   6   11     1 
@<TRIPOS>SUBSTRUCTURE
 1   PYRIDINE1  1