# Name: pyrrole

@<TRIPOS>MOLECULE
pyrrole
10 10 1 0 0
SMALL
NO_CHARGE

@<TRIPOS>ATOM
 1    C1     0.07024    0.08126    0.03484    C    1
 2    C2     0.66735    1.30219    0.22501    C    1
 3    H1     0.31713    2.25037   -0.18289    H    1
 4    N1     0.80778   -0.91918    0.69811    N    1
 5    H2     -0.8384   -0.08891   -0.54274    H    1
 6    C3     1.89346   -0.12506    1.32155    C    1
 7    H3     2.66638   -0.56935    1.94869    H    1
 8    C4     1.84544    1.12264    1.06113    C    1
 9    H4     2.54074    1.89296    1.39468    H    1
10    H5     0.63145   -1.90193    0.75389    H    1
@<TRIPOS>BOND
 1    1    2    2
 2    1    4    1
 3    1    5    1
 4    2    3    1
 5    2    8    1
 6    4    6    1
 7    4   10    1
 8    6    7    1
 9    6    8    2
10    8    9    1
@<TRIPOS>SUBSTRUCTURE
 1   PYRROLE1   1