# Name: solvent water

@<TRIPOS>MOLECULE
solvent water
3 2 1 0 0
SMALL
NO_CHARGE

@<TRIPOS>ATOM
 1   O1    0.0        0.0        0.0          O     1
 2   H1   -0.52953    0.320158   0.731866     H     1
 3   H2   -0.38729    0.411104  -0.774290     H     1
##   bv    0.98372   0.132314   0.121611   -100    1
!##   bv   -0.459750  -0.085800  -0.883890   -101    1
@<TRIPOS>BOND
 1   1    2     1
 2   1    3     1
@<TRIPOS>SUBSTRUCTURE
 1   SOLVENT_H2O1  1