# Name: thiazole

@<TRIPOS>MOLECULE
thiazole
8 8 1 0 0
SMALL
NO_CHARGE

@<TRIPOS>ATOM
 1    C1    -0.25551    -0.78896    -0.03757    C    1
 2    C2    -1.09760     0.29769     0.05962    C    1
 3    N1    -0.47766     1.39544     0.00814    N    1
 4    C3     0.74869     1.09069    -0.15530    C    1
 5    S1     1.06733    -0.31098    -0.15804    S    1
 6    H1     1.52599     1.85270    -0.31391    H    1
 7    H2    -2.18860     0.16087     0.09140    H    1
 8    H3    -0.64749    -1.81511    -0.09555    H    1
@<TRIPOS>BOND
 1    1   2   2
 2    1   5   1
 3    1   8   1
 4    2   3   1
 5    2   7   1
 6    3   4   2
 7    4   5   1
 8    4   6   1
@<TRIPOS>SUBSTRUCTURE
 1   THIAZOLE1   1