# Name: alpha-L-rhamnose

@<TRIPOS>MOLECULE
alpha-L-rhamnose
23 23 1 0  0
SMALL
NO_CHARGE

@<TRIPOS>ATOM
 1   C1     1.623    -0.117    -0.52     C     1
 2   C2     0.441     0.039    -1.479    C     1
 3   C3    -0.82     -0.518    -0.811    C     1
 4   C4    -0.992     0.158     0.552    C     1
 5   C5     0.298    -0.0080    1.358    C     1
 6   C6     0.124     0.634     2.736    C     1
 7   O1     1.791    -1.499    -0.197    O     1
 8   O2     0.252     1.422    -1.782    O     1
 9   O3    -1.958    -0.245    -1.632    O     1
10   O4    -2.077    -0.45      1.255    O     1
11   O5     1.378     0.622     0.673    O     1
12   H1     2.529     0.254    -0.998    H     1
13   H2     0.641    -0.511    -2.398    H     1
14   H3    -0.717    -1.595    -0.676    H     1
15   H4    -1.199     1.219     0.409    H     1
16   H5     0.515    -1.069     1.478    H     1
17   H6     1.042     0.513     3.311    H     1
18   H7    -0.092     1.695     2.617    H     1
19   H8    -0.699     0.151     3.261    H     1
20   H9     2.547    -1.556     0.403    H     1
21   H10    1.07      1.733    -2.194    H     1
22   H11   -1.8      -0.679    -2.482    H     1
23   H12   -2.149     0.0050    2.106    H     1
@<TRIPOS>BOND
 1    1    2    1
 2    1    7    1
 3    1   11    1
 4    1   12    1
 5    2    3    1
 6    2    8    1
 7    2   13    1
 8    3    4    1
 9    3    9    1
10    3   14    1
11    4    5    1
12    4   10    1
13    4   15    1
14    5    6    1
15    5   11    1
16    5   16    1
17    6   17    1
18    6   18    1
19    6   19    1
20    7   20    1
21    8   21    1
22    9   22    1
23   10   23    1
@<TRIPOS>SUBSTRUCTURE
1   ALPHA-L-RHAMNOSE1   1
