# Name: alpha-D-galactose

@<TRIPOS>MOLECULE
alpha-D-galactose
24 24 1 0  0
SMALL
NO_CHARGE

@<TRIPOS>ATOM
 1   C1     3.5163    1.122    -9.2075   C     1
 2   H1     3.2576    0.1359   -9.7177   H     1
 3   O1     4.8134    0.9803   -8.5594   O     1
 4   C2     4.9203   -0.1042   -7.594    C     1
 5   H2     4.7424   -1.0979   -8.1236   H     1
 6   O2     5.9658   -0.1024   -7.1394   O     1
 7   C3     3.8718    0.0689   -6.4674   C     1
 8   H3     4.1563    0.9704   -5.8303   H     1
 9   O3     3.8466   -1.0915   -5.644    O     1
10   H4     2.7993   -1.3153   -5.3519   H     1
11   C4     2.4567    0.2935   -7.057    C     1
12   H5     2.1038   -0.6771   -7.5397   H     1
13   O4     1.5573    0.6351   -6.0107   O     1
14   H6     2.0947    1.2239   -5.2384   H     1
15   C5     2.4358    1.4165   -8.1264   C     1
16   H7     1.4075    1.4559   -8.6169   H     1
17   O5     2.7114    2.6668   -7.4965   O     1
18   H8     1.7581    3.1412   -7.183    H     1
19   C6     3.6402    2.2094  -10.2846   C     1
20   H9     4.5293    1.9733  -10.9579   H     1
21   O6     2.4527    2.2683  -11.0747   O     1
22   H10    1.7272    2.962   -10.601    H     1
23   H11    3.8036    3.2214   -9.7859   H     1
24   H12    5.9964    0.6052   -6.2848   H     1
@<TRIPOS>BOND
 1    1    2    1
 2    1    3    1
 3    1   15    1
 4    1   19    1
 5    3    4    1
 6    4    5    1
 7    4    6    1
 8    4    7    1
 9    6   24    1
10    7    8    1
11    7    9    1
12    7   11    1
13    9   10    1
14   11   12    1
15   11   13    1
16   11   15    1
17   13   14    1
18   15   16    1
19   15   17    1
20   17   18    1
21   19   20    1
22   19   21    1
23   19   23    1
24   21   22    1
@<TRIPOS>SUBSTRUCTURE
1   ALPHA-D-GALACTOSE1   1
