# Name: alpha-D-glucose

@<TRIPOS>MOLECULE
alpha-D-glucose
24 24 1 0 0
SMALL
NO_CHARGE

@<TRIPOS>ATOM
 1   C1     5.326    5.866    0.510    C.3   1
 2   C2     5.134    7.251   -0.061    C.3   1
 3   C3     6.071    8.264    0.596    C.3   1
 4   C4     5.813    9.667    0.077    C.3   1
 5   C5     4.335   10.011    0.226    C.3   1
 6   C6     3.449    8.914   -0.379    C.3   1
 7   O1     4.618    4.914   -0.257    O.3   1   
 8   O2     3.786    7.649    0.183    O.3   1 
 9   O3     3.595    8.914   -1.760    O.3   1 
10   O4     4.020   11.275   -0.327    O.3   1 
11   O5     6.562   10.617    0.812    O.3   1 
12   O6     7.434    7.936    0.342    O.3   1 
13   H1     4.276    4.246    0.347    H     1
14   H2     6.394    5.627    0.513    H     1
15   H3     4.977    5.857    1.549    H     1
16   H4     2.411    9.088   -0.077    H     1
17   H5     2.852    8.420   -2.137    H     1
18   H6     4.646   11.540   -1.009    H     1
19   H7     4.100   10.056    1.292    H     1
20   H8     7.508   10.591    0.585    H     1
21   H9     6.100    9.710   -0.992    H     1
22   H10    7.788    7.542    1.156    H     1
23   H11    5.881    8.258    1.682    H     1
24   H12    5.321    7.220   -1.149    H     1
@<TRIPOS>BOND
 1   1    2    1
 2   1    7    1
 3   1   14    1 
 4   1   15    1
 5   2    3    1
 6   2    8    1
 7   2   24    1
 8   3    4    1
 9   3   12    1 
10   3   23    1
11   4    5    1
12   4   11    1 
13   4   21    1
14   5    6    1
15   5   10    1
16   5   19    1
17   6    8    1
18   6    9    1
19   6   16    1
20   7   13    1
21   9   17    1
22  10   18    1
23  11   20    1
24  12   22    1
@<TRIPOS>SUBSTRUCTURE
 1   ALPHA-D-GLUCOSE1  1