# Name: alpha-lactose

@<TRIPOS>MOLECULE
alpha-lactose
45 46 1 0  0
SMALL
NO_CHARGE

@<TRIPOS>ATOM
 1   C1    -0.482     0.085    -1.061    C     1
 2   C2    -1.288     0.742    -2.185    C     1
 3   C3    -1.152    -0.103    -3.456    C     1
 4   C4     0.338    -0.303    -3.753    C     1
 5   C5     1.02     -0.882    -2.511    C     1
 6   C6     2.502    -1.119    -2.808    C     1
 7   O1    -0.629     0.851     0.136    O     1
 8   O2    -2.663     0.819    -1.805    O     1
 9   O3    -1.775     0.572    -4.55     O     1
10   O4     0.932     0.951    -4.088    O     1
11   O5     0.895     0.031    -1.423    O     1
12   O6     3.139    -1.662    -1.65     O     1
13   C7     0.241    -0.273     4.001    C     1
14   C8     1.464     0.062     3.145    C     1
15   C9     1.011     0.855     1.915    C     1
16   C10   -0.088     0.064     1.199    C     1
17   C11   -1.195    -0.273     2.2      C     1
18   C12   -2.313    -1.037     1.487    C     1
19   O7    -0.411     0.936     4.392    O     1
20   O8     2.383     0.846     3.908    O     1
21   O9     2.116     1.048     1.03     O     1
22   O10   -0.666    -1.079     3.251    O     1
23   O11   -3.35     -1.344     2.421    O     1
24   H1    -0.853    -0.925    -0.892    H     1
25   H2    -0.904     1.745    -2.371    H     1
26   H3    -1.629    -1.071    -3.304    H     1
27   H4     0.454    -0.996    -4.586    H     1
28   H5     0.548    -1.828    -2.245    H     1
29   H6     2.975    -0.174    -3.074    H     1
30   H7     2.598    -1.819    -3.638    H     1
31   H8    -2.701     1.353    -0.999    H     1
32   H9    -2.705     0.687    -4.314    H     1
33   H10    0.468     1.28     -4.87     H     1
34   H11    4.069    -1.796    -1.88     H     1
35   H12    0.559    -0.817     4.89     H     1
36   H13    1.95     -0.86      2.826    H     1
37   H14    0.62      1.824     2.228    H     1
38   H15    0.329    -0.857     0.793    H     1
39   H16   -1.596     0.649     2.618    H     1
40   H17   -2.718    -0.422     0.684    H     1
41   H18   -1.913    -1.961     1.071    H     1
42   H19   -1.174     0.681     4.928    H     1
43   H20    2.642     0.311     4.671    H     1
44   H21    2.783     1.549     1.52     H     1
45   H22   -4.033    -1.824     1.932    H     1
@<TRIPOS>BOND
 1    1    2    1
 2    1    7    1
 3    1   11    1
 4    1   24    1
 5    2    3    1
 6    2    8    1
 7    2   25    1
 8    3    4    1
 9    3    9    1
10    3   26    1
11    4    5    1
12    4   10    1
13    4   27    1
14    5    6    1
15    5   11    1
16    5   28    1
17    6   12    1
18    6   29    1
19    6   30    1
20    7   16    1
21    8   31    1
22    9   32    1
23   10   33    1
24   12   34    1
25   13   14    1
26   13   19    1
27   13   22    1
28   13   35    1
29   14   15    1
30   14   20    1
31   14   36    1
32   15   16    1
33   15   21    1
34   15   37    1
35   16   17    1
36   16   38    1
37   17   18    1
38   17   22    1
39   17   39    1
40   18   23    1
41   18   40    1
42   18   41    1
43   19   42    1
44   20   43    1
45   21   44    1
46   23   45    1
@<TRIPOS>SUBSTRUCTURE
1   ALPHA-LACTOSE1   1
