# Name: alpha-D-mannose

@<TRIPOS>MOLECULE
alpha-D-mannose
24 24 1 0  0
SMALL
NO_CHARGE

@<TRIPOS>ATOM
 1   C1    -1.692    -0.156    -0.316    C     1
 2   C2    -0.878     0.091    -1.588    C     1
 3   C3     0.535    -0.467    -1.391    C     1
 4   C4     1.126     0.134    -0.111    C     1
 5   C5     0.16     -0.117     1.048    C     1
 6   C6     0.757     0.448     2.339    C     1
 7   O1    -1.735    -1.558    -0.046    O     1
 8   O2    -0.808     1.494    -1.845    O     1
 9   O3     1.35     -0.113    -2.511    O     1
10   O4     2.384    -0.482     0.17     O     1
11   O5    -1.087     0.52      0.784    O     1
12   O6    -0.142     0.211     3.423    O     1
13   H1    -2.707     0.216    -0.457    H     1
14   H2    -1.354    -0.41     -2.43     H     1
15   H3     0.491    -1.552    -1.3      H     1
16   H4     1.267     1.207    -0.244    H     1
17   H5     0.0020   -1.189     1.162    H     1
18   H6     0.915     1.521     2.226    H     1
19   H7     1.71     -0.039     2.543    H     1
20   H8    -2.26     -1.672     0.757    H     1
21   H9    -1.717     1.804    -1.955    H     1
22   H10    0.934    -0.501    -3.293    H     1
23   H11    2.958    -0.305    -0.587    H     1
24   H12    0.27      0.582     4.215    H     1
@<TRIPOS>BOND
 1    1    2    1
 2    1    7    1
 3    1   11    1
 4    1   13    1
 5    2    3    1
 6    2    8    1
 7    2   14    1
 8    3    4    1
 9    3    9    1
10    3   15    1
11    4    5    1
12    4   10    1
13    4   16    1
14    5    6    1
15    5   11    1
16    5   17    1
17    6   12    1
18    6   18    1
19    6   19    1
20    7   20    1
21    8   21    1
22    9   22    1
23   10   23    1
24   12   24    1
@<TRIPOS>SUBSTRUCTURE
1   ALPHA-D-MANNOSE1   1
