# Name: aspartame

@<TRIPOS>MOLECULE
aspartame
39 39 1 0  0
SMALL
NO_CHARGE

@<TRIPOS>ATOM
 1   N1     2.883    -0.863     1.467    N     1
 2   C1     4.119    -0.584     0.705    C     1
 3   C2     4.244     0.907     0.376    C     1
 4   C3     3.259     1.395    -0.689    C     1
 5   O1     2.428     0.577    -1.11     O     1
 6   O2     3.367     2.543    -1.104    O     1
 7   C4     5.307    -1.042     1.508    C     1
 8   O3     5.29     -1.026     2.748    O     1
 9   N2     6.344    -1.457     0.803    N     1
10   C5     7.56     -1.963     1.448    C     1
11   C6     7.36     -3.392     1.97     C     1
12   C7     5.737    -4.586     0.451    C     1
13   C8     5.447    -5.491    -0.543    C     1
14   C9     6.46     -6.271    -1.083    C     1
15   C10    7.76     -6.131    -0.646    C     1
16   C11    8.059    -5.176     0.349    C     1
17   C12    7.046    -4.405     0.905    C     1
18   C13    8.699    -1.818     0.5      C     1
19   O4     8.655    -1.257    -0.557    O     1
20   O5     9.803    -2.384     0.976    O     1
21   C14   10.965    -2.32      0.131    C     1
22   H1     1.991    -0.752     0.843    H     1
23   H2     2.777    -1.977     1.7      H     1
24   H3     2.833    -0.242     2.131    H     1
25   H4     4.055    -1.112    -0.09     H     1
26   H5     5.15      0.997    -0.157    H     1
27   H6     4.03      1.257     1.123    H     1
28   H7     6.398    -1.516    -0.102    H     1
29   H8     7.797    -1.123     2.169    H     1
30   H9     6.501    -3.348     2.577    H     1
31   H10    8.153    -3.629     2.36     H     1
32   H11    4.984    -4.016     0.785    H     1
33   H12    4.557    -5.629    -0.981    H     1
34   H13    6.128    -7.005    -1.725    H     1
35   H14    8.515    -6.796    -0.794    H     1
36   H15    8.995    -4.881     0.458    H     1
37   H16   11.559    -1.526     0.227    H     1
38   H17   11.617    -2.775     0.574    H     1
39   H18   10.873    -2.577    -0.55     H     1
@<TRIPOS>BOND
 1    1    2    1
 2    1   22    1
 3    1   23    1
 4    1   24    1
 5    2    3    1
 6    2    7    1
 7    2   25    1
 8    3    4    1
 9    3   26    1
10    3   27    1
11    4    5    2
12    4    6    1
13    7    8    2
14    7    9    1
15    9   10    1
16    9   28    1
17   10   11    1
18   10   18    1
19   10   29    1
20   11   17    1
21   11   30    1
22   11   31    1
23   12   13    1
24   12   17    2
25   12   32    1
26   13   14    2
27   13   33    1
28   14   15    1
29   14   34    1
30   15   16    2
31   15   35    1
32   16   17    1
33   16   36    1
34   18   19    2
35   18   20    1
36   20   21    1
37   21   37    1
38   21   38    1
39   21   39    1
@<TRIPOS>SUBSTRUCTURE
1   ASPARTAME1   1
