# Name: beta-D-glucose

@<TRIPOS>MOLECULE
beta-D-glucose
45 46 1 0  0
SMALL
NO_CHARGE

@<TRIPOS>ATOM
 1   C1    -0.482     0.116    -1.129    C     1
 2   C2    -1.232     0.711    -2.323    C     1
 3   C3    -1.045    -0.205    -3.537    C     1
 4   C4     0.455    -0.428    -3.754    C     1
 5   C5     1.077    -0.938    -2.452    C     1
 6   C6     2.569    -1.198    -2.669    C     1
 7   O1    -0.677     0.949     0.015    O     1
 8   O2    -2.623     0.816    -2.01     O     1
 9   O3    -1.614     0.41     -4.694    O     1
10   O4     1.072     0.804    -4.133    O     1
11   O5     0.91      0.036    -1.424    O     1
12   O6     3.15     -1.677    -1.455    O     1
13   C7     0.011     0.041     3.973    C     1
14   C8     1.274     0.323     3.156    C     1
15   C9     0.882     1.047     1.863    C     1
16   C10   -0.19      0.221     1.144    C     1
17   C11   -1.342    -0.054     2.112    C     1
18   C12   -2.432    -0.852     1.394    C     1
19   O7     0.37     -0.607     5.194    O     1
20   O8     2.163     1.145     3.914    O     1
21   O9     2.027     1.185     1.02     O     1
22   O10   -0.866    -0.801     3.23     O     1
23   O11   -3.512    -1.102     2.295    O     1
24   H1    -0.867    -0.881    -0.92     H     1
25   H2    -0.834     1.7      -2.548    H     1
26   H3    -1.535    -1.161    -3.353    H     1
27   H4     0.604    -1.167    -4.542    H     1
28   H5     0.587    -1.865    -2.156    H     1
29   H6     3.06     -0.271    -2.966    H     1
30   H7     2.698    -1.944    -3.453    H     1
31   H8    -2.693     1.394    -1.239    H     1
32   H9    -2.553     0.542    -4.507    H     1
33   H10    0.646     1.089    -4.952    H     1
34   H11    4.089    -1.828    -1.635    H     1
35   H12   -0.492     0.981     4.197    H     1
36   H13    1.767    -0.617     2.911    H     1
37   H14    0.484     2.033     2.103    H     1
38   H15    0.239    -0.723     0.81     H     1
39   H16   -1.756     0.892     2.459    H     1
40   H17   -2.797    -0.282     0.539    H     1
41   H18   -2.02     -1.8       1.048    H     1
42   H19   -0.45     -0.766     5.678    H     1
43   H20    2.384     0.653     4.716    H     1
44   H21    2.674     1.71      1.51     H     1
45   H22   -4.176    -1.606     1.804    H     1
@<TRIPOS>BOND
 1    1    2    1
 2    1    7    1
 3    1   11    1
 4    1   24    1
 5    2    3    1
 6    2    8    1
 7    2   25    1
 8    3    4    1
 9    3    9    1
10    3   26    1
11    4    5    1
12    4   10    1
13    4   27    1
14    5    6    1
15    5   11    1
16    5   28    1
17    6   12    1
18    6   29    1
19    6   30    1
20    7   16    1
21    8   31    1
22    9   32    1
23   10   33    1
24   12   34    1
25   13   14    1
26   13   19    1
27   13   22    1
28   13   35    1
29   14   15    1
30   14   20    1
31   14   36    1
32   15   16    1
33   15   21    1
34   15   37    1
35   16   17    1
36   16   38    1
37   17   18    1
38   17   22    1
39   17   39    1
40   18   23    1
41   18   40    1
42   18   41    1
43   19   42    1
44   20   43    1
45   21   44    1
46   23   45    1
@<TRIPOS>SUBSTRUCTURE
1   BETA-D-GLUCOSE1   1
