# Name: beta-D-galactose

@<TRIPOS>MOLECULE
beta-D-galactose
24 24 1 0  0
SMALL
NO_CHARGE

@<TRIPOS>ATOM
 1   C1     1.384     0.161    -0.445    C     1
 2   C2     0.328    -0.139    -1.512    C     1
 3   C3    -0.975     0.575    -1.139    C     1
 4   C4    -1.36      0.176     0.289    C     1
 5   C5    -0.177     0.454     1.22     C     1
 6   C6    -0.563     0.093     2.655    C     1
 7   O1     2.612    -0.476    -0.802    O     1
 8   O2     0.785     0.328    -2.782    O     1
 9   O3    -2.011     0.186    -2.044    O     1
10   O4    -1.686    -1.213     0.327    O     1
11   O5     0.945    -0.328     0.819    O     1
12   O6     0.539     0.355     3.526    O     1
13   H1     1.539     1.238    -0.383    H     1
14   H2     0.154    -1.214    -1.56     H     1
15   H3    -0.829     1.654    -1.193    H     1
16   H4    -2.221     0.762     0.612    H     1
17   H5     0.082     1.512     1.17     H     1
18   H6    -0.823    -0.963     2.707    H     1
19   H7    -1.42      0.693     2.963    H     1
20   H8     3.251    -0.259    -0.109    H     1
21   H9     1.609    -0.141    -2.973    H     1
22   H10   -1.72      0.444    -2.929    H     1
23   H11   -2.43     -1.342    -0.276    H     1
24   H12    0.254     0.114     4.418    H     1
@<TRIPOS>BOND
 1    1    2    1
 2    1    7    1
 3    1   11    1
 4    1   13    1
 5    2    3    1
 6    2    8    1
 7    2   14    1
 8    3    4    1
 9    3    9    1
10    3   15    1
11    4    5    1
12    4   10    1
13    4   16    1
14    5    6    1
15    5   11    1
16    5   17    1
17    6   12    1
18    6   18    1
19    6   19    1
20    7   20    1
21    8   21    1
22    9   22    1
23   10   23    1
24   12   24    1
@<TRIPOS>SUBSTRUCTURE
1   BETA-D-GALACTOSE1   1
