# Name: D-glucuronic acid

@<TRIPOS>MOLECULE
D-glucuronic acid
23 23 1 0  0
SMALL
NO_CHARGE

@<TRIPOS>ATOM
 1   C1     1.509    -0.087    -1.086    C     1
 2   C2     0.272    -0.527    -1.873    C     1
 3   C3    -0.97      0.115    -1.253    C     1
 4   C4    -0.999    -0.216     0.242    C     1
 5   C5     0.332     0.199     0.871    C     1
 6   C6     0.3      -0.093     2.349    C     1
 7   O1     1.609     1.337    -1.116    O     1
 8   O2     0.399    -0.109    -3.234    O     1
 9   O3    -2.146    -0.4      -1.881    O     1
10   O4    -2.067     0.493     0.871    O     1
11   O5     1.4      -0.526     0.266    O     1
12   O6     1.11     -0.848     2.832    O     1
13   O7    -0.627     0.483     3.128    O     1
14   H1     2.4      -0.523    -1.538    H     1
15   H2     0.181    -1.612    -1.832    H     1
16   H3    -0.929     1.196    -1.387    H     1
17   H4    -1.146    -1.288     0.375    H     1
18   H5     0.487     1.267     0.717    H     1
19   H6     2.4       1.572    -0.612    H     1
20   H7     1.192    -0.536    -3.585    H     1
21   H8    -2.086    -0.169    -2.818    H     1
22   H9    -2.044     0.26      1.809    H     1
23   H10   -0.648     0.295     4.076    H     1
@<TRIPOS>BOND
 1    1    2    1
 2    1    7    1
 3    1   11    1
 4    1   14    1
 5    2    3    1
 6    2    8    1
 7    2   15    1
 8    3    4    1
 9    3    9    1
10    3   16    1
11    4    5    1
12    4   10    1
13    4   17    1
14    5    6    1
15    5   11    1
16    5   18    1
17    6   12    2
18    6   13    1
19    7   19    1
20    8   20    1
21    9   21    1
22   10   22    1
23   13   23    1
@<TRIPOS>SUBSTRUCTURE
1   D-GLUCURONIC ACID1   1
