# Name: xylose

@<TRIPOS>MOLECULE
xylose
20 19 1 0  0
SMALL
NO_CHARGE

@<TRIPOS>ATOM
 1   C1     0.359     0.09     -2.611    C     1
 2   C2    -0.257    -0.408    -1.33     C     1
 3   C3     0.602     0.033    -0.144    C     1
 4   C4    -0.024    -0.472     1.156    C     1
 5   C5     0.836    -0.031     2.341    C     1
 6   O1     0.7      -0.695    -3.463    O     1
 7   O2    -1.572     0.134    -1.192    O     1
 8   O3     0.676     1.459    -0.114    O     1
 9   O4    -1.339     0.069     1.293    O     1
10   O5     0.251    -0.504     3.556    O     1
11   H1     0.496     1.15     -2.768    H     1
12   H2    -0.314    -1.496    -1.353    H     1
13   H3     1.605    -0.38     -0.249    H     1
14   H4    -0.08     -1.561     1.133    H     1
15   H5     0.892     1.056     2.364    H     1
16   H6     1.839    -0.445     2.236    H     1
17   H7    -1.478     1.096    -1.176    H     1
18   H8    -0.229     1.784    -0.02     H     1
19   H9    -1.244     1.031     1.31     H     1
20   H10    0.822    -0.205     4.277    H     1
@<TRIPOS>BOND
 1    1    2    1
 2    1    6    2
 3    1   11    1
 4    2    3    1
 5    2    7    1
 6    2   12    1
 7    3    4    1
 8    3    8    1
 9    3   13    1
10    4    5    1
11    4    9    1
12    4   14    1
13    5   10    1
14    5   15    1
15    5   16    1
16    7   17    1
17    8   18    1
18    9   19    1
19   10   20    1
@<TRIPOS>SUBSTRUCTURE
1   XYLOSE1   1
