# Name: fructose

@<TRIPOS>MOLECULE
fructose
24 24 1 0  0
SMALL
NO_CHARGE

@<TRIPOS>ATOM
 1   C1     0.791     1.055    -1.776    C     1
 2   C2     0.144    -0.149    -1.09     C     1
 3   C3    -1.304     0.188    -0.689    C     1
 4   C4    -1.307     0.081     0.857    C     1
 5   C5     0.198     0.23      1.193    C     1
 6   C6     0.518    -0.427     2.536    C     1
 7   O1     2.138     0.735    -2.13     O     1
 8   O2     0.154    -1.273    -1.972    O     1
 9   O3    -2.215    -0.752    -1.261    O     1
10   O4    -2.072     1.137     1.44     O     1
11   O5     0.858    -0.467     0.115    O     1
12   O6     1.919    -0.319     2.798    O     1
13   H1     0.229     1.307    -2.675    H     1
14   H2     0.787     1.906    -1.095    H     1
15   H3    -1.56      1.202    -0.998    H     1
16   H4    -1.68     -0.89      1.179    H     1
17   H5     0.487     1.281     1.203    H     1
18   H6     0.235    -1.479     2.503    H     1
19   H7    -0.037     0.074     3.328    H     1
20   H8     2.508     1.518    -2.558    H     1
21   H9     1.08     -1.452    -2.186    H     1
22   H10   -3.101    -0.491    -0.977    H     1
23   H11   -2.034     1.013     2.399    H     1
24   H12    2.078    -0.745     3.651    H     1
@<TRIPOS>BOND
 1    1    2    1
 2    1    7    1
 3    1   13    1
 4    1   14    1
 5    2    3    1
 6    2    8    1
 7    2   11    1
 8    3    4    1
 9    3    9    1
10    3   15    1
11    4    5    1
12    4   10    1
13    4   16    1
14    5    6    1
15    5   11    1
16    5   17    1
17    6   12    1
18    6   18    1
19    6   19    1
20    7   20    1
21    8   21    1
22    9   22    1
23   10   23    1
24   12   24    1
@<TRIPOS>SUBSTRUCTURE
1   FRUCTOSE1   1
