# Name: L-rhamnose

@<TRIPOS>MOLECULE
L-rhamnose
23 22 1 0  0
SMALL
NO_CHARGE

@<TRIPOS>ATOM
 1   C1     0.32      0.41     -2.749    C     1
 2   C2    -0.495     0.064    -1.53     C     1
 3   C3     0.368     0.221    -0.277    C     1
 4   C4    -0.46     -0.13      0.959    C     1
 5   C5     0.403     0.026     2.212    C     1
 6   C6    -0.424    -0.325     3.45     C     1
 7   O1     0.494    -0.414    -3.614    O     1
 8   O2    -1.621     0.941    -1.446    O     1
 9   O3     1.493    -0.655    -0.362    O     1
10   O4    -0.915    -1.481     0.86     O     1
11   O5     0.858     1.377     2.312    O     1
12   H1     0.749     1.396    -2.85     H     1
13   H2    -0.842    -0.966    -1.606    H     1
14   H3     0.715     1.251    -0.202    H     1
15   H4    -1.318     0.538     1.024    H     1
16   H5     1.262    -0.642     2.148    H     1
17   H6     0.19     -0.213     4.343    H     1
18   H7    -1.283     0.343     3.514    H     1
19   H8    -0.771    -1.355     3.374    H     1
20   H9    -1.27      1.839    -1.381    H     1
21   H10    1.143    -1.554    -0.427    H     1
22   H11   -0.126    -2.038     0.805    H     1
23   H12    0.07      1.934     2.366    H     1
@<TRIPOS>BOND
 1    1    2    1
 2    1    7    2
 3    1   12    1
 4    2    3    1
 5    2    8    1
 6    2   13    1
 7    3    4    1
 8    3    9    1
 9    3   14    1
10    4    5    1
11    4   10    1
12    4   15    1
13    5    6    1
14    5   11    1
15    5   16    1
16    6   17    1
17    6   18    1
18    6   19    1
19    8   20    1
20    9   21    1
21   10   22    1
22   11   23    1
@<TRIPOS>SUBSTRUCTURE
1   L-RHAMNOSE1   1
