# Name: N-acetyl-D-glucosamine

@<TRIPOS>MOLECULE
N-acetyl-D-glucosamine
30 30 1 0  0
SMALL
NO_CHARGE

@<TRIPOS>ATOM
 1   C1     0.185     1.082    -0.421    C     1
 2   C2     0.79     -0.22      0.112    C     1
 3   C3    -0.124    -1.39     -0.265    C     1
 4   C4    -1.526    -1.129     0.294    C     1
 5   C5    -2.042     0.207    -0.246    C     1
 6   C6    -3.417     0.504     0.355    C     1
 7   C7     3.197     0.157     0.076    C     1
 8   C8     4.559    -0.052    -0.533    C     1
 9   N1     2.114    -0.422    -0.48     N     1
10   O1     1.003     2.185    -0.024    O     1
11   O2     0.395    -2.6       0.291    O     1
12   O3    -2.405    -2.18     -0.114    O     1
13   O4    -1.13      1.248     0.113    O     1
14   O5    -3.949     1.691    -0.236    O     1
15   O6     3.074     0.845     1.067    O     1
16   H1     0.133     1.04     -1.509    H     1
17   H2     0.879    -0.163     1.197    H     1
18   H3    -0.174    -1.478    -1.35     H     1
19   H4    -1.483    -1.091     1.382    H     1
20   H5    -2.123     0.154    -1.332    H     1
21   H6    -4.088    -0.333     0.157    H     1
22   H7    -3.32      0.645     1.431    H     1
23   H8     4.56      0.32     -1.558    H     1
24   H9     5.305     0.49      0.05     H     1
25   H10    4.799    -1.115    -0.532    H     1
26   H11    2.212    -0.973    -1.273    H     1
27   H12    0.679     3.044    -0.328    H     1
28   H13   -0.135    -3.384     0.091    H     1
29   H14   -3.312    -2.079     0.206    H     1
30   H15   -4.822     1.94      0.099    H     1
@<TRIPOS>BOND
 1    1    2    1
 2    1   10    1
 3    1   13    1
 4    1   16    1
 5    2    3    1
 6    2    9    1
 7    2   17    1
 8    3    4    1
 9    3   11    1
10    3   18    1
11    4    5    1
12    4   12    1
13    4   19    1
14    5    6    1
15    5   13    1
16    5   20    1
17    6   14    1
18    6   21    1
19    6   22    1
20    7    8    1
21    7    9    1
22    7   15    2
23    8   23    1
24    8   24    1
25    8   25    1
26    9   26    1
27   10   27    1
28   11   28    1
29   12   29    1
30   14   30    1
@<TRIPOS>SUBSTRUCTURE
1   N-ACETYL-D-GLUCOSAMINE1   1
