# Name: trehalose

@<TRIPOS>MOLECULE
trehalose
45 46 1 0  0
SMALL
NO_CHARGE

@<TRIPOS>ATOM
 1   C1    -0.901    -0.581     0.708    C     1
 2   C2    -1.905     0.274     1.484    C     1
 3   C3    -1.141     1.181     2.456    C     1
 4   C4    -0.222     0.308     3.319    C     1
 5   C5     0.654    -0.548     2.403    C     1
 6   C6     1.601    -1.398     3.255    C     1
 7   O1     0.0010    0.271     0.0010     O     1
 8   O2    -2.657     1.076     0.571    O     1
 9   O3    -2.067     1.877     3.291    O     1
10   O4     0.607     1.143     4.13     O     1
11   O5    -0.167    -1.404     1.612    O     1
12   O6     2.422    -2.196     2.401    O     1
13   C7     0.904    -0.58     -0.707    C     1
14   C8     1.905     0.275    -1.486    C     1
15   C9     1.14      1.18     -2.457    C     1
16   C10    0.22      0.307    -3.318    C     1
17   C11   -0.653    -0.55     -2.401    C     1
18   C12   -1.598    -1.401    -3.252    C     1
19   O7     2.657     1.079    -0.575    O     1
20   O8     2.063     1.877    -3.296    O     1
21   O9    -0.61      1.14     -4.129    O     1
22   O10    0.169    -1.404    -1.609    O     1
23   O11   -2.421    -2.198    -2.398    O     1
24   H1    -1.436    -1.211    -0.0020    H     1
25   H2    -2.58     -0.372     2.044    H     1
26   H3    -0.543     1.898     1.894    H     1
27   H4    -0.825    -0.336     3.957    H     1
28   H5     1.238     0.099     1.75     H     1
29   H6     1.018    -2.046     3.909    H     1
30   H7     2.231    -0.745     3.858    H     1
31   H8    -3.115     0.467    -0.023    H     1
32   H9    -2.631     2.402     2.706    H     1
33   H10    0.015     1.67      4.684    H     1
34   H11    3.002    -2.715     2.976    H     1
35   H12    1.441    -1.209     0.0030     H     1
36   H13    2.58     -0.371    -2.046    H     1
37   H14    0.543     1.898    -1.895    H     1
38   H15    0.823    -0.338    -3.957    H     1
39   H16   -1.238     0.096    -1.748    H     1
40   H17   -2.228    -0.749    -3.858    H     1
41   H18   -1.015    -2.05     -3.904    H     1
42   H19    3.122     0.471     0.015    H     1
43   H20    2.621     2.412    -2.715    H     1
44   H21   -0.02      1.663    -4.689    H     1
45   H22   -3.0      -2.717    -2.973    H     1
@<TRIPOS>BOND
 1    1    2    1
 2    1    7    1
 3    1   11    1
 4    1   24    1
 5    2    3    1
 6    2    8    1
 7    2   25    1
 8    3    4    1
 9    3    9    1
10    3   26    1
11    4    5    1
12    4   10    1
13    4   27    1
14    5    6    1
15    5   11    1
16    5   28    1
17    6   12    1
18    6   29    1
19    6   30    1
20    7   13    1
21    8   31    1
22    9   32    1
23   10   33    1
24   12   34    1
25   13   14    1
26   13   22    1
27   13   35    1
28   14   15    1
29   14   19    1
30   14   36    1
31   15   16    1
32   15   20    1
33   15   37    1
34   16   17    1
35   16   21    1
36   16   38    1
37   17   18    1
38   17   22    1
39   17   39    1
40   18   23    1
41   18   40    1
42   18   41    1
43   19   42    1
44   20   43    1
45   21   44    1
46   23   45    1
@<TRIPOS>SUBSTRUCTURE
1   TREHALOSE1   1
